#======================================================================
# Crystal Data Generated By AuToFF
#----------------------------------------------------------------------

data_AuToFF_phase_1

_cell_length_a                         29.8330
_cell_length_b                         29.8330
_cell_length_c                         3.6214
_cell_angle_alpha                      90.00
_cell_angle_beta                       90.00
_cell_angle_gamma                      120.00
_symmetry_space_group_name_H-M_alt     'P 1'
_symmetry_space_group_IT_number        1

loop_
_space_group_symop_operation_xyz
   'x, y, z'

loop_
   _atom_site_label
   _atom_site_type_symbol
   _atom_site_fract_x
   _atom_site_fract_y
   _atom_site_fract_z
   _atom_site_charge
opls_280-0    C    0.68317009    0.38628990    0.00000000    0.25690000
opls_145-1    C    0.62933982    0.35019976    0.00000000    -0.10520000
opls_142-2    C    0.59308991    0.36240011    0.00000000    0.10650000
opls_916-3    C    0.56078992    0.42318009    0.00000000    0.19470000
opls_145-4    C    0.51052986    0.38682984    0.00000000    -0.21620000
opls_280-5    C    0.44994009    0.46320000    0.00000000    0.20730000
opls_147-6    C    0.48669992    0.44984003    0.00000000    -0.02170000
opls_147-7    C    0.53694988    0.48674996    0.00000000    -0.02350000
opls_145-8    C    0.47409000    0.40005008    0.00000000    -0.21360000
opls_145-9    C    0.57331990    0.47289998    0.00000000    -0.23860000
opls_280-10    C    0.61370994    0.29687987    0.00000000    0.25690000
opls_145-11    C    0.64979994    0.27914000    0.00000000    -0.10520000
opls_142-12    C    0.63759990    0.23069003    0.00000000    0.10650000
opls_916-13    C    0.57681993    0.13760995    0.00000000    0.19470000
opls_145-14    C    0.61317000    0.12369998    0.00000000    -0.21620000
opls_280-15    C    0.53680004    0.98673989    0.00000000    0.20730000
opls_147-16    C    0.55015996    0.03686000    0.00000000    -0.02170000
opls_147-17    C    0.51324995    0.05019984    0.00000000    -0.02350000
opls_145-18    C    0.59995002    0.07404008    0.00000000    -0.21360000
opls_145-19    C    0.52709992    0.10041980    0.00000000    -0.23860000
opls_280-20    C    0.70311978    0.31682984    0.00000000    0.25690000
opls_145-21    C    0.72086005    0.37065986    0.00000000    -0.10520000
opls_142-22    C    0.76930985    0.40690986    0.00000000    0.10650000
opls_916-23    C    0.86238982    0.43920996    0.00000000    0.19470000
opls_145-24    C    0.87629994    0.48946979    0.00000000    -0.21620000
opls_280-25    C    0.01326001    0.55005972    0.00000000    0.20730000
opls_147-26    C    0.96314012    0.51329997    0.00000000    -0.02170000
opls_147-27    C    0.94979997    0.46304982    0.00000000    -0.02350000
opls_145-28    C    0.92595998    0.52590983    0.00000000    -0.21360000
opls_145-29    C    0.89957999    0.42667984    0.00000000    -0.23860000
opls_280-30    C    0.31682972    0.61370971    0.00000000    0.25690000
opls_145-31    C    0.37065999    0.64979985    0.00000000    -0.10520000
opls_142-32    C    0.40691009    0.63759989    0.00000000    0.10650000
opls_916-33    C    0.43921008    0.57681991    0.00000000    0.19470000
opls_145-34    C    0.48946994    0.61316977    0.00000000    -0.21620000
opls_280-35    C    0.55005991    0.53680000    0.00000000    0.20730000
opls_147-36    C    0.51330008    0.55015997    0.00000000    -0.02170000
opls_147-37    C    0.46305012    0.51325004    0.00000000    -0.02350000
opls_145-38    C    0.52591000    0.59994992    0.00000000    -0.21360000
opls_145-39    C    0.42668010    0.52710002    0.00000000    -0.23860000
opls_280-40    C    0.38628987    0.70311974    0.00000000    0.25690000
opls_145-41    C    0.35020006    0.72086000    0.00000000    -0.10520000
opls_142-42    C    0.36240010    0.76930997    0.00000000    0.10650000
opls_916-43    C    0.42318007    0.86239005    0.00000000    0.19470000
opls_145-44    C    0.38683000    0.87630002    0.00000000    -0.21620000
opls_280-45    C    0.46319996    0.01326011    0.00000000    0.20730000
opls_147-46    C    0.44984004    0.96314000    0.00000000    -0.02170000
opls_147-47    C    0.48674985    0.94979978    0.00000000    -0.02350000
opls_145-48    C    0.40004998    0.92595992    0.00000000    -0.21360000
opls_145-49    C    0.47289989    0.89957981    0.00000000    -0.23860000
opls_280-50    C    0.29688003    0.68316978    0.00000000    0.25690000
opls_145-51    C    0.27913976    0.62933975    0.00000000    -0.10520000
opls_142-52    C    0.23068995    0.59308976    0.00000000    0.10650000
opls_916-53    C    0.13761018    0.56079004    0.00000000    0.19470000
opls_145-54    C    0.12369987    0.51052982    0.00000000    -0.21620000
opls_280-55    C    0.98673980    0.44993989    0.00000000    0.20730000
opls_147-56    C    0.03685988    0.48670003    0.00000000    -0.02170000
opls_147-57    C    0.05019983    0.53694979    0.00000000    -0.02350000
opls_145-58    C    0.07403983    0.47408978    0.00000000    -0.21360000
opls_145-59    C    0.10041982    0.57331978    0.00000000    -0.23860000
opls_238-60    N    0.60003985    0.41162999    0.00000000    -0.25400000
opls_238-61    N    0.58836991    0.18841011    0.00000000    -0.25400000
opls_238-62    N    0.81158991    0.39995990    0.00000000    -0.25400000
opls_238-63    N    0.39996015    0.58837001    0.00000000    -0.25400000
opls_238-64    N    0.41163009    0.81158989    0.00000000    -0.25400000
opls_238-65    N    0.18840989    0.60003971    0.00000000    -0.25400000
opls_281-66    O    0.59342011    0.56872002    0.00000000    -0.37260000
opls_281-67    O    0.69760014    0.43014011    0.00000000    -0.39760000
opls_281-68    O    0.43127999    0.02469990    0.00000000    -0.37260000
opls_281-69    O    0.56986005    0.26745985    0.00000000    -0.39760000
opls_281-70    O    0.97529990    0.40658009    0.00000000    -0.37260000
opls_281-71    O    0.73254015    0.30240005    0.00000000    -0.39760000
opls_281-72    O    0.40657989    0.43127998    0.00000000    -0.37260000
opls_281-73    O    0.30239986    0.56985989    0.00000000    -0.39760000
opls_281-74    O    0.56871981    0.97529972    0.00000000    -0.37260000
opls_281-75    O    0.43013976    0.73253977    0.00000000    -0.39760000
opls_281-76    O    0.02470010    0.59341991    0.00000000    -0.37260000
opls_281-77    O    0.26745985    0.69759995    0.00000000    -0.39760000
opls_144-78    H    0.44435982    0.66767985    0.00000000    0.11190000
opls_146-79    H    0.50176990    0.65196001    0.00000000    0.23000000
opls_146-80    H    0.56439002    0.62873982    0.00000000    0.23010000
opls_146-81    H    0.38810016    0.49879007    0.00000000    0.23000000
opls_910-82    H    0.63517985    0.44225995    0.00000000    0.27560000
opls_144-83    H    0.33232009    0.77667988    0.00000000    0.11190000
opls_146-84    H    0.34804012    0.84980999    0.00000000    0.23000000
opls_146-85    H    0.37126004    0.93564983    0.00000000    0.23010000
opls_146-86    H    0.50121001    0.88930970    0.00000000    0.23000000
opls_910-87    H    0.55774016    0.19292007    0.00000000    0.27560000
opls_144-88    H    0.22331989    0.55563989    0.00000000    0.11190000
opls_146-89    H    0.15018998    0.49823000    0.00000000    0.23000000
opls_146-90    H    0.06435008    0.43560996    0.00000000    0.23010000
opls_146-91    H    0.11068997    0.61189984    0.00000000    0.23000000
opls_910-92    H    0.80707998    0.36481998    0.00000000    0.27560000
opls_144-93    H    0.55563999    0.33231977    0.00000000    0.11190000
opls_146-94    H    0.49823010    0.34803999    0.00000000    0.23000000
opls_146-95    H    0.43560978    0.37125979    0.00000000    0.23010000
opls_146-96    H    0.61189984    0.50120993    0.00000000    0.23000000
opls_910-97    H    0.36482015    0.55774005    0.00000000    0.27560000
opls_144-98    H    0.66767991    0.22332012    0.00000000    0.11190000
opls_146-99    H    0.65195988    0.15019001    0.00000000    0.23000000
opls_146-100    H    0.62873996    0.06435017    0.00000000    0.23010000
opls_146-101    H    0.49878980    0.11068991    0.00000000    0.23000000
opls_910-102    H    0.44225984    0.80707993    0.00000000    0.27560000
opls_144-103    H    0.77668011    0.44436011    0.00000000    0.11190000
opls_146-104    H    0.84981002    0.50177000    0.00000000    0.23000000
opls_146-105    H    0.93564992    0.56439004    0.00000000    0.23010000
opls_146-106    H    0.88930983    0.38809977    0.00000000    0.23000000
opls_910-107    H    0.19292002    0.63518002    0.00000000    0.27560000
