#======================================================================
# Crystal Data Generated By AuToFF
#----------------------------------------------------------------------

data_AuToFF_phase_1

_cell_length_a                         30.7790
_cell_length_b                         30.7790
_cell_length_c                         4.3310
_cell_angle_alpha                      90.00
_cell_angle_beta                       90.00
_cell_angle_gamma                      120.00
_symmetry_space_group_name_H-M_alt     'P 1'
_symmetry_space_group_IT_number        1

loop_
_space_group_symop_operation_xyz
   'x, y, z'

loop_
   _atom_site_label
   _atom_site_type_symbol
   _atom_site_fract_x
   _atom_site_fract_y
   _atom_site_fract_z
   _atom_site_charge
opls_145-0    C    0.94937988    0.98629996    0.63160933    -0.05440000
opls_700-1    C    0.85931004    0.71397991    0.40894943    -0.13130000
opls_166-2    C    0.81157001    0.69803980    0.26432002    0.35710000
opls_145-3    C    0.77255978    0.64777981    0.27589009    -0.21960000
opls_700-4    C    0.77922987    0.61167006    0.43087970    -0.19930000
opls_166-5    C    0.82582986    0.62641003    0.56931886    0.21260000
opls_145-6    C    0.86527992    0.67630987    0.54749942    -0.21900000
opls_182-7    C    0.87555979    0.59716980    0.85298084    0.05350000
opls_136-8    C    0.90198992    0.58402988    0.60057954    -0.20360000
opls_136-9    C    0.94248986    0.57613992    0.74453013    -0.14560000
opls_234-10    C    0.73907985    0.55758983    0.43317017    0.46660000
opls_142-11    C    0.73341983    0.43938977    0.34322097    0.05940000
opls_700-12    C    0.69896973    0.38526978    0.35235973    0.06240000
opls_145-13    C    0.64709982    0.36545991    0.35114985    -0.09440000
opls_142-14    C    0.92156976    0.89370972    0.60003002    0.03830000
opls_700-15    C    0.96235010    0.94819999    0.62511891    0.05960000
opls_234-16    C    0.90192987    0.76811978    0.45335950    0.43850000
opls_136-17    C    0.97318980    0.56397991    0.51709998    -0.14650000
opls_136-18    C    0.01736992    0.56721002    0.70035096    -0.18610000
opls_136-19    C    0.05056985    0.54934985    0.53381898    -0.11190000
opls_135-20    C    0.03820006    0.48300982    0.89129069    -0.33430000
opls_135-21    C    0.11481993    0.51800986    0.61830986    -0.32630000
opls_135-22    C    0.11040004    0.57464004    0.94474948    -0.32620000
opls_145-23    C    0.01369986    0.96307990    0.63160933    -0.05440000
opls_700-24    C    0.28601990    0.14533003    0.40894943    -0.13130000
opls_166-25    C    0.30196015    0.11353009    0.26432002    0.35710000
opls_145-26    C    0.35222006    0.12477997    0.27589009    -0.21970000
opls_700-27    C    0.38832988    0.16756004    0.43087970    -0.19930000
opls_166-28    C    0.37358992    0.19942000    0.56931886    0.21260000
opls_145-29    C    0.32368996    0.18896996    0.54749942    -0.21900000
opls_182-30    C    0.40283001    0.27839012    0.85298084    0.05350000
opls_136-31    C    0.41597014    0.31795996    0.60057954    -0.20360000
opls_136-32    C    0.42385977    0.36634978    0.74453013    -0.14560000
opls_234-33    C    0.44241012    0.18149005    0.43317017    0.46650000
opls_142-34    C    0.56061003    0.29403010    0.34322097    0.05940000
opls_700-35    C    0.61473007    0.31370004    0.35235973    0.06240000
opls_145-36    C    0.63454013    0.28164012    0.35114985    -0.09440000
opls_142-37    C    0.10629006    0.02786002    0.60003002    0.03830000
opls_700-38    C    0.05179990    0.01414985    0.62511891    0.05960000
opls_234-39    C    0.23188016    0.13381003    0.45335950    0.43840000
opls_136-40    C    0.43601981    0.40920977    0.51709998    -0.14650000
opls_136-41    C    0.43279004    0.45015982    0.70035096    -0.18610000
opls_136-42    C    0.45064997    0.50122002    0.53381898    -0.11190000
opls_135-43    C    0.51699001    0.55518994    0.89129069    -0.33440000
opls_135-44    C    0.48198993    0.59681003    0.61830986    -0.32630000
opls_135-45    C    0.42535997    0.53575973    0.94474948    -0.32630000
opls_145-46    C    0.03691993    0.05062014    0.63160933    -0.05440000
opls_700-47    C    0.85467006    0.14069007    0.40894943    -0.13130000
opls_166-48    C    0.88647016    0.18843011    0.26432002    0.35710000
opls_145-49    C    0.87521997    0.22743984    0.27589009    -0.21970000
opls_700-50    C    0.83243992    0.22076990    0.43087970    -0.19930000
opls_166-51    C    0.80057990    0.17416996    0.56931886    0.21260000
opls_145-52    C    0.81102993    0.13471979    0.54749942    -0.21900000
opls_182-53    C    0.72160988    0.12444008    0.85298084    0.05360000
opls_136-54    C    0.68203994    0.09801016    0.60057954    -0.20360000
opls_136-55    C    0.63364986    0.05750992    0.74453013    -0.14560000
opls_234-56    C    0.81851003    0.26092011    0.43317017    0.46650000
opls_142-57    C    0.70597014    0.26658013    0.34322097    0.05940000
opls_700-58    C    0.68630002    0.30102981    0.35235973    0.06240000
opls_145-59    C    0.71836006    0.35289998    0.35114985    -0.09440000
opls_142-60    C    0.97213999    0.07842989    0.60003002    0.03830000
opls_700-61    C    0.98585000    0.03765016    0.62511891    0.05970000
opls_234-62    C    0.86618978    0.09806981    0.45335950    0.43840000
opls_136-63    C    0.59078988    0.02680995    0.51709998    -0.14650000
opls_136-64    C    0.54983986    0.98262979    0.70035096    -0.18610000
opls_136-65    C    0.49877999    0.94942976    0.53381898    -0.11190000
opls_135-66    C    0.44481006    0.96179986    0.89129069    -0.33430000
opls_135-67    C    0.40318995    0.88517974    0.61830986    -0.32630000
opls_135-68    C    0.46423981    0.88959986    0.94474948    -0.32620000
opls_179-69    O    0.82867012    0.59098006    0.75549065    -0.19760000
opls_167-70    O    0.80082986    0.72932989    0.09349111    -0.45360000
opls_236-71    O    0.69517000    0.54510981    0.49625952    -0.44570000
opls_236-72    O    0.94519008    0.77767994    0.48396906    -0.39390000
opls_179-73    O    0.40902008    0.23768992    0.75549065    -0.19760000
opls_167-74    O    0.27066989    0.07149996    0.09349111    -0.45370000
opls_236-75    O    0.45488998    0.15006003    0.49625952    -0.44560000
opls_236-76    O    0.22232000    0.16751015    0.48396906    -0.39380000
opls_179-77    O    0.76231012    0.17133001    0.75549065    -0.19750000
opls_167-78    O    0.92849992    0.19917015    0.09349111    -0.45360000
opls_236-79    O    0.84993983    0.30482979    0.49625952    -0.44570000
opls_236-80    O    0.83248991    0.05480991    0.48396906    -0.39390000
opls_238-81    N    0.75155991    0.52236995    0.34766105    -0.20690000
opls_750-82    N    0.71768994    0.47101976    0.37668899    -0.17450000
opls_238-83    N    0.89136990    0.80637995    0.48996075    -0.20660000
opls_750-84    N    0.93021986    0.85699971    0.53571000    -0.18630000
opls_288-85    N    0.07665017    0.53059005    0.74296929    0.29110000
opls_238-86    N    0.47762984    0.22918996    0.34766105    -0.20690000
opls_750-87    N    0.52898013    0.24667009    0.37668899    -0.17440000
opls_238-88    N    0.19362007    0.08498991    0.48996075    -0.20660000
opls_750-89    N    0.14300010    0.07322006    0.53571000    -0.18630000
opls_288-90    N    0.46941004    0.54606009    0.74296929    0.29110000
opls_238-91    N    0.77080993    0.24844009    0.34766105    -0.20700000
opls_750-92    N    0.75332975    0.28230978    0.37668899    -0.17430000
opls_238-93    N    0.91501003    0.10863015    0.48996075    -0.20660000
opls_750-94    N    0.92677985    0.06977986    0.53571000    -0.18630000
opls_288-95    N    0.45393979    0.92334987    0.74296929    0.29110000
opls_146-96    H    0.90827000    0.97584992    0.64244054    0.04200000
opls_146-97    H    0.73519005    0.63623994    0.15842069    0.04200000
opls_146-98    H    0.90381981    0.68721985    0.64488109    0.04200000
opls_185-99    H    0.86912987    0.57213998    0.06196952    0.03830000
opls_185-100    H    0.90158980    0.63790977    0.92223043    0.03830000
opls_140-101    H    0.91972982    0.61600989    0.42625029    0.10160000
opls_140-102    H    0.87347971    0.54817973    0.47837913    0.10150000
opls_140-103    H    0.92410015    0.54423006    0.91896098    0.10150000
opls_140-104    H    0.97047983    0.61162991    0.87207112    0.10150000
opls_168-105    H    0.82512990    0.76866001    0.17094897    0.27400000
opls_910-106    H    0.78938996    0.53436002    0.25253983    0.25070000
opls_144-107    H    0.77504986    0.45355988    0.30553914    0.02480000
opls_146-108    H    0.63092008    0.39165010    0.34915955    0.04200000
opls_910-109    H    0.85157994    0.79707001    0.48320018    0.25070000
opls_144-110    H    0.88152003    0.88535981    0.64054953    0.02480000
opls_140-111    H    0.98774996    0.59257974    0.32141076    0.10150000
opls_140-112    H    0.94859995    0.52464979    0.41978065    0.10150000
opls_140-113    H    0.00193016    0.54423006    0.92056107    0.10150000
opls_140-114    H    0.04400990    0.60785995    0.76870931    0.10150000
opls_140-115    H    0.08017986    0.58189973    0.39175017    0.04610000
opls_140-116    H    0.02630013    0.51718001    0.37041099    0.04610000
opls_140-117    H    0.05633987    0.46019981    0.96528977    0.10900000
opls_140-118    H    0.00680010    0.46036000    0.71955899    0.10910000
opls_140-119    H    0.11472010    0.51925989    0.35525052    0.10910000
opls_140-120    H    0.10491989    0.47879979    0.69770954    0.10900000
opls_140-121    H    0.13544998    0.60833002    0.79344031    0.10900000
opls_140-122    H    0.13472018    0.56460004    0.09305010    0.10910000
opls_140-123    H    0.02207991    0.49211004    0.10238051    0.10900000
opls_140-124    H    0.15366992    0.54646976    0.70778111    0.10910000
opls_140-125    H    0.08655007    0.58429999    0.10035096    0.10900000
opls_146-126    H    0.02415000    0.93241970    0.64244054    0.04200000
opls_146-127    H    0.36375984    0.09893980    0.15842069    0.04200000
opls_146-128    H    0.31278001    0.21660001    0.64488109    0.04200000
opls_185-129    H    0.42786020    0.29699010    0.06196952    0.03830000
opls_185-130    H    0.36209006    0.26367003    0.92223043    0.03830000
opls_140-131    H    0.38399006    0.30372983    0.42625029    0.10150000
opls_140-132    H    0.45181986    0.32529994    0.47837913    0.10150000
opls_140-133    H    0.45577002    0.37985999    0.91896098    0.10150000
opls_140-134    H    0.38837005    0.35884999    0.87207112    0.10150000
opls_168-135    H    0.23134003    0.05646998    0.17094897    0.27410000
opls_910-136    H    0.46564009    0.25503988    0.25253983    0.20480000
opls_144-137    H    0.54644003    0.32148983    0.30553914    0.02480000
opls_146-138    H    0.60835008    0.23927009    0.34915955    0.04200000
opls_910-139    H    0.20293005    0.05451016    0.48320018    0.25070000
opls_144-140    H    0.11463993    0.99615988    0.64054953    0.02480000
opls_140-141    H    0.40741987    0.39516983    0.32141076    0.10150000
opls_140-142    H    0.47535009    0.42395012    0.41978065    0.10150000
opls_140-143    H    0.45577005    0.45770988    0.92056107    0.10150000
opls_140-144    H    0.39214006    0.43614990    0.76870931    0.10150000
opls_140-145    H    0.41809995    0.49827990    0.39175017    0.04610000
opls_140-146    H    0.48281990    0.50912010    0.37041099    0.04610000
opls_140-147    H    0.53980007    0.59613999    0.96528977    0.10910000
opls_140-148    H    0.53963983    0.54643975    0.71955899    0.10900000
opls_140-149    H    0.48073976    0.59545983    0.35525052    0.10900000
opls_140-150    H    0.52119979    0.62610991    0.69770954    0.10900000
opls_140-151    H    0.39166999    0.52711983    0.79344031    0.10900000
opls_140-152    H    0.43539972    0.57011975    0.09305010    0.10900000
opls_140-153    H    0.50788986    0.52996991    0.10238051    0.10910000
opls_140-154    H    0.45353017    0.60720004    0.70778111    0.10900000
opls_140-155    H    0.41569979    0.50224983    0.10035096    0.10900000
opls_146-156    H    0.06758013    0.09173001    0.64244054    0.04200000
opls_146-157    H    0.90105999    0.26481013    0.15842069    0.04200000
opls_146-158    H    0.78340018    0.09618014    0.64488109    0.04200000
opls_185-159    H    0.70300993    0.13086992    0.06196952    0.03830000
opls_185-160    H    0.73633003    0.09841008    0.92223043    0.03830000
opls_140-161    H    0.69627005    0.08027004    0.42625029    0.10150000
opls_140-162    H    0.67469992    0.12651995    0.47837913    0.10150000
opls_140-163    H    0.62014004    0.07589982    0.91896098    0.10150000
opls_140-164    H    0.64115012    0.02952010    0.87207112    0.10150000
opls_168-165    H    0.94353007    0.17487001    0.17094897    0.27410000
opls_910-166    H    0.74495989    0.21060986    0.25253983    0.20480000
opls_144-167    H    0.67850992    0.22494992    0.30553914    0.02480000
opls_146-168    H    0.76072984    0.36907981    0.34915955    0.04200000
opls_910-169    H    0.94549001    0.14841983    0.48320018    0.25070000
opls_144-170    H    0.00383986    0.11847993    0.64054953    0.02480000
opls_140-171    H    0.60482999    0.01225005    0.32141076    0.10150000
opls_140-172    H    0.57604996    0.05140009    0.41978065    0.10150000
opls_140-173    H    0.54229005    0.99806981    0.92056107    0.10150000
opls_140-174    H    0.56384986    0.95598978    0.76870931    0.10160000
opls_140-175    H    0.50172000    0.91982000    0.39175017    0.04610000
opls_140-176    H    0.49087996    0.97369989    0.37041099    0.04610000
opls_140-177    H    0.40385987    0.94365982    0.96528977    0.10900000
opls_140-178    H    0.45355988    0.99319988    0.71955899    0.10900000
opls_140-179    H    0.40453995    0.88527991    0.35525052    0.10900000
opls_140-180    H    0.37389001    0.89507980    0.69770954    0.10910000
opls_140-181    H    0.47287984    0.86454977    0.79344031    0.10900000
opls_140-182    H    0.42987992    0.86527983    0.09305010    0.10900000
opls_140-183    H    0.47002972    0.97791967    0.10238051    0.10900000
opls_140-184    H    0.39280005    0.84632982    0.70778111    0.10900000
opls_140-185    H    0.49774995    0.91344981    0.10035096    0.10900000
