#======================================================================
# Crystal Data Generated By AuToFF
#----------------------------------------------------------------------

data_AuToFF_phase_1

_cell_length_a                         41.2160
_cell_length_b                         4.9270
_cell_length_c                         40.2370
_cell_angle_alpha                      90.00
_cell_angle_beta                       89.94
_cell_angle_gamma                      90.00
_symmetry_space_group_name_H-M_alt     'P 1'
_symmetry_space_group_IT_number        1

loop_
_space_group_symop_operation_xyz
   'x, y, z'

loop_
   _atom_site_label
   _atom_site_type_symbol
   _atom_site_fract_x
   _atom_site_fract_y
   _atom_site_fract_z
   _atom_site_charge
opls_700-0    C    0.55096000    0.28409986    0.34555998    0.05890000
opls_700-1    C    0.94466997    0.20390095    0.34306004    0.06060000
opls_145-2    C    0.91157008    0.27910087    0.34243002    -0.17200000
opls_145-3    C    0.89612991    0.90070022    0.37921012    0.17970000
opls_145-4    C    0.56417005    0.53709965    0.33517998    -0.13540000
opls_145-5    C    0.95264990    0.97950071    0.36277002    -0.12400000
opls_145-6    C    0.88764997    0.12400041    0.35919992    -0.18610000
opls_145-7    C    0.56494011    0.18669982    0.37568003    -0.13870000
opls_145-8    C    0.60312990    0.56550030    0.38091999    0.17100000
opls_145-9    C    0.58871992    0.33130099    0.39370002    -0.18610000
opls_145-10    C    0.92932998    0.83719911    0.38134994    -0.17680000
opls_145-11    C    0.59145991    0.65819972    0.35019999    -0.18990000
opls_700-12    C    0.22814988    0.92910087    0.98063001    0.01840000
opls_145-13    C    0.25346008    0.76889994    0.96625989    -0.10090000
opls_700-14    C    0.27423989    0.59409986    0.98447995    0.02170000
opls_700-15    C    0.29166005    0.39049929    0.04270002    0.06040000
opls_700-16    C    0.19836998    0.05309925    0.03530011    0.05990000
opls_145-17    C    0.20613994    0.22100061    0.06261007    -0.15200000
opls_145-18    C    0.18241989    0.38639943    0.07798995    -0.12880000
opls_700-19    C    0.15003998    0.38149990    0.06725008    0.05060000
opls_145-20    C    0.14186008    0.19660037    0.04184012    -0.12880000
opls_145-21    C    0.16546997    0.03269941    0.02646993    -0.13590000
opls_145-22    C    0.29582991    0.45550030    0.07680000    -0.13860000
opls_145-23    C    0.31521002    0.29709965    0.09802003    -0.13670000
opls_700-24    C    0.33242003    0.07079968    0.08633998    0.05310000
opls_145-25    C    0.30757004    0.15140045    0.03181004    -0.16530000
opls_142-26    C    0.12371992    0.55719911    0.08193011    0.07960000
opls_142-27    C    0.35389000    0.91400041    0.10966007    0.07960000
opls_700-28    C    0.47063003    0.12070022    0.78847990    0.05050000
opls_700-29    C    0.49834988    0.01690075    0.77020989    -0.03480000
opls_700-30    C    0.52172989    0.86880049    0.78943002    0.05370000
opls_700-31    C    0.47533987    0.87290035    0.67528999    -0.03480000
opls_700-32    C    0.50005997    0.03140045    0.65870997    0.05050000
opls_700-33    C    0.52714009    0.14199919    0.67684006    -0.00850000
opls_148-34    C    0.43824987    0.17210067    0.77175002    -0.46460000
opls_148-35    C    0.54155005    0.66850010    0.77074994    -0.46350000
opls_148-36    C    0.49949988    0.06660037    0.62110998    -0.45950000
opls_145-37    C    0.32865002    0.00000000    0.05273010    -0.13330000
opls_700-38    C    0.05096995    0.78409986    0.34505000    0.05890000
opls_700-39    C    0.44466998    0.70390095    0.34255006    0.06060000
opls_145-40    C    0.41157009    0.77910087    0.34192004    -0.13640000
opls_145-41    C    0.39612992    0.40070022    0.37869989    0.17970000
opls_145-42    C    0.06418001    0.03709965    0.33467000    -0.13540000
opls_145-43    C    0.45264991    0.47950071    0.36226004    -0.12400000
opls_145-44    C    0.38764997    0.62400041    0.35869988    -0.18610000
opls_145-45    C    0.06493988    0.68669982    0.37517006    -0.13870000
opls_145-46    C    0.10312991    0.06550030    0.38041001    0.17100000
opls_145-47    C    0.08871993    0.83130099    0.39319005    -0.18610000
opls_145-48    C    0.42932999    0.33719911    0.38083996    -0.17690000
opls_145-49    C    0.09145992    0.15819972    0.34969001    -0.19030000
opls_700-50    C    0.72814987    0.42910087    0.98113999    0.01840000
opls_145-51    C    0.75346007    0.26889994    0.96677012    -0.10090000
opls_700-52    C    0.77423988    0.09409986    0.98498993    0.02170000
opls_700-53    C    0.79166004    0.89049929    0.04321000    0.06040000
opls_700-54    C    0.69836997    0.55309925    0.03581009    0.05990000
opls_145-55    C    0.70613993    0.72100061    0.06312005    -0.15180000
opls_145-56    C    0.68242012    0.88639943    0.07849993    -0.13630000
opls_700-57    C    0.65003003    0.88149990    0.06776006    0.05060000
opls_145-58    C    0.64186007    0.69660037    0.04235010    -0.12870000
opls_145-59    C    0.66546996    0.53269941    0.02697991    -0.13590000
opls_145-60    C    0.79582990    0.95550030    0.07730998    -0.13860000
opls_145-61    C    0.81520006    0.79709965    0.09853001    -0.13680000
opls_700-62    C    0.83241007    0.57079968    0.08684996    0.05310000
opls_145-63    C    0.80757003    0.65140045    0.03232002    -0.16520000
opls_142-64    C    0.62371991    0.05719911    0.08244008    0.07960000
opls_142-65    C    0.85388999    0.41400041    0.11017005    0.07960000
opls_700-66    C    0.97063002    0.62070022    0.78898988    0.05050000
opls_700-67    C    0.99834987    0.51690075    0.77072012    -0.03480000
opls_700-68    C    0.02172990    0.36880049    0.78892004    0.05240000
opls_700-69    C    0.97534010    0.37290035    0.67579997    -0.03220000
opls_700-70    C    0.00005998    0.53140045    0.65819999    0.05150000
opls_700-71    C    0.02714010    0.64199919    0.67633008    -0.00850000
opls_148-72    C    0.93825011    0.67210067    0.77226000    -0.46450000
opls_148-73    C    0.04155006    0.16850010    0.77023996    -0.46430000
opls_148-74    C    0.99949989    0.56660037    0.62060001    -0.44260000
opls_145-75    C    0.82865001    0.50000000    0.05324008    -0.13330000
opls_700-76    C    0.44855000    0.28409986    0.15545998    0.05890000
opls_700-77    C    0.05484998    0.20390095    0.15795992    0.06070000
opls_145-78    C    0.08795011    0.27910087    0.15858993    -0.14320000
opls_145-79    C    0.10338009    0.90070022    0.12181009    0.17970000
opls_145-80    C    0.43533995    0.53709965    0.16583998    -0.13660000
opls_145-81    C    0.04687005    0.97950071    0.13824994    -0.12660000
opls_145-82    C    0.11186004    0.12400041    0.14181010    -0.18610000
opls_145-83    C    0.43458008    0.18669982    0.12533992    -0.13870000
opls_145-84    C    0.39638010    0.56550030    0.12009997    0.17240000
opls_145-85    C    0.41080003    0.33130099    0.10731993    -0.18670000
opls_145-86    C    0.07018002    0.83719911    0.11967001    -0.17510000
opls_145-87    C    0.40805009    0.65819972    0.15081997    -0.18980000
opls_700-88    C    0.77039011    0.92910087    0.52038995    0.01670000
opls_145-89    C    0.74507991    0.76889994    0.53476006    -0.10080000
opls_700-90    C    0.72430010    0.59409986    0.51654001    0.02270000
opls_700-91    C    0.70785990    0.39049929    0.45831993    0.06040000
opls_700-92    C    0.80114997    0.05309925    0.46572009    0.05990000
opls_145-93    C    0.79337006    0.22100061    0.43840989    -0.15200000
opls_145-94    C    0.81709011    0.38639943    0.42303001    -0.13630000
opls_700-95    C    0.84947996    0.38149990    0.43376988    0.05060000
opls_145-96    C    0.85764992    0.19660037    0.45918009    -0.13630000
opls_145-97    C    0.83404003    0.03269941    0.47455003    -0.13520000
opls_145-98    C    0.70369003    0.45550030    0.42421996    -0.13860000
opls_145-99    C    0.68430993    0.29709965    0.40299993    -0.13690000
opls_700-100    C    0.66709992    0.07079968    0.41467998    0.05310000
opls_145-101    C    0.69193996    0.15140045    0.46920992    -0.18610000
opls_142-102    C    0.87579008    0.55719911    0.41909010    0.07960000
opls_142-103    C    0.64562000    0.91400041    0.39135989    0.07960000
opls_700-104    C    0.52790996    0.12070022    0.71254006    0.05050000
opls_700-105    C    0.50018987    0.01690075    0.73081007    -0.03480000
opls_700-106    C    0.47681010    0.86880049    0.71158994    0.05370000
opls_700-107    C    0.52319987    0.87290035    0.82572996    -0.03480000
opls_700-108    C    0.49848002    0.03140045    0.84230998    0.05050000
opls_700-109    C    0.47139990    0.14199919    0.82417990    -0.00850000
opls_148-110    C    0.56028987    0.17210067    0.72926994    -0.46460000
opls_148-111    C    0.45698994    0.66850010    0.73027002    -0.46350000
opls_148-112    C    0.49905006    0.06660037    0.87990997    -0.45950000
opls_145-113    C    0.67085999    0.00000000    0.44827992    -0.13960000
opls_700-114    C    0.94854999    0.78409986    0.15596996    0.05890000
opls_700-115    C    0.55484997    0.70390095    0.15846990    0.06060000
opls_145-116    C    0.58795010    0.77910087    0.15909991    -0.14310000
opls_145-117    C    0.60338008    0.40070022    0.12232006    0.17980000
opls_145-118    C    0.93533994    0.03709965    0.16634996    -0.13540000
opls_145-119    C    0.54687004    0.47950071    0.13875992    -0.12660000
opls_145-120    C    0.61186003    0.62400041    0.14232007    -0.18610000
opls_145-121    C    0.93458007    0.68669982    0.12584990    -0.13870000
opls_145-122    C    0.89638009    0.06550030    0.12060995    0.17100000
opls_145-123    C    0.91079007    0.83130099    0.10782991    -0.18670000
opls_145-124    C    0.57018001    0.33719911    0.12017999    -0.17510000
opls_145-125    C    0.90805008    0.15819972    0.15132995    -0.18990000
opls_700-126    C    0.27040007    0.42910087    0.51987997    0.01670000
opls_145-127    C    0.24507992    0.26889994    0.53425009    -0.10110000
opls_700-128    C    0.22430011    0.09409986    0.51603003    0.02270000
opls_700-129    C    0.20785991    0.89049929    0.45780995    0.06040000
opls_700-130    C    0.30114998    0.55309925    0.46521011    0.06000000
opls_145-131    C    0.29338002    0.72100061    0.43789991    -0.15200000
opls_145-132    C    0.31708988    0.88639943    0.42252003    -0.12880000
opls_700-133    C    0.34947997    0.88149990    0.43325990    0.05060000
opls_145-134    C    0.35764994    0.69660037    0.45865992    -0.13630000
opls_145-135    C    0.33404004    0.53269941    0.47404005    -0.13520000
opls_145-136    C    0.20369004    0.95550030    0.42370998    -0.13860000
opls_145-137    C    0.18430994    0.79709965    0.40248995    -0.13680000
opls_700-138    C    0.16709993    0.57079968    0.41417000    0.05310000
opls_145-139    C    0.19194992    0.65140045    0.46869994    -0.18610000
opls_142-140    C    0.37579009    0.05719911    0.41858012    0.07960000
opls_142-141    C    0.14562001    0.41400041    0.39084991    0.07960000
opls_700-142    C    0.02790997    0.62070022    0.71203008    0.05050000
opls_700-143    C    0.00018988    0.51690075    0.73030009    -0.03480000
opls_700-144    C    0.97681009    0.36880049    0.71209991    0.05250000
opls_700-145    C    0.02319987    0.37290035    0.82522993    -0.03220000
opls_700-146    C    0.99848001    0.53140045    0.84281996    0.05160000
opls_700-147    C    0.97139988    0.64199919    0.82469012    -0.00850000
opls_148-148    C    0.06028988    0.67210067    0.72875996    -0.46460000
opls_148-149    C    0.95698993    0.16850010    0.73077999    -0.46350000
opls_148-150    C    0.99904010    0.56660037    0.88041995    -0.44270000
opls_145-151    C    0.17086995    0.50000000    0.44776994    -0.13330000
opls_700-152    C    0.44806002    0.71590014    0.65545998    0.05890000
opls_700-153    C    0.05436000    0.79609905    0.65795992    0.06060000
opls_145-154    C    0.08745989    0.72089913    0.65858993    -0.13650000
opls_145-155    C    0.10290006    0.09929978    0.62181009    0.17970000
opls_145-156    C    0.43484997    0.46290035    0.66583998    -0.13540000
opls_145-157    C    0.04638007    0.02049929    0.63824994    -0.12390000
opls_145-158    C    0.11138001    0.87599959    0.64181010    -0.19030000
opls_145-159    C    0.43409010    0.81330018    0.62533992    -0.13870000
opls_145-160    C    0.39590007    0.43449970    0.62009997    0.17100000
opls_145-161    C    0.41031005    0.66869901    0.60731993    -0.18620000
opls_145-162    C    0.06969999    0.16280089    0.61967001    -0.17690000
opls_145-163    C    0.40757006    0.34180028    0.65081997    -0.19030000
opls_700-164    C    0.77088009    0.07089913    0.02038995    0.01840000
opls_145-165    C    0.74556989    0.23110006    0.03476006    -0.10110000
opls_700-166    C    0.72477989    0.40590014    0.01654001    0.02170000
opls_700-167    C    0.70736992    0.60950071    0.95831993    0.06040000
opls_700-168    C    0.80065999    0.94690075    0.96572009    0.06000000
opls_145-169    C    0.79289003    0.77899939    0.93840989    -0.15200000
opls_145-170    C    0.81659989    0.61360057    0.92303001    -0.12880000
opls_700-171    C    0.84898998    0.61850010    0.93376988    0.05050000
opls_145-172    C    0.85716990    0.80339963    0.95916990    -0.13630000
opls_145-173    C    0.83355005    0.96730059    0.97455003    -0.13590000
opls_145-174    C    0.70320006    0.54449970    0.92421996    -0.13860000
opls_145-175    C    0.68381995    0.70290035    0.90299993    -0.13680000
opls_700-176    C    0.66660994    0.92920032    0.91467998    0.05310000
opls_145-177    C    0.69145993    0.84859955    0.96920992    -0.18600000
opls_142-178    C    0.87531005    0.44280089    0.91909010    0.07960000
opls_142-179    C    0.64513002    0.08599959    0.89135989    0.07960000
opls_700-180    C    0.52838999    0.87929978    0.21254006    0.05050000
opls_700-181    C    0.50068009    0.98309925    0.23081007    -0.03480000
opls_700-182    C    0.47728989    0.13119951    0.21158994    0.05370000
opls_700-183    C    0.52367991    0.12709965    0.32572996    -0.03480000
opls_700-184    C    0.49897000    0.96859955    0.34230998    0.05050000
opls_700-185    C    0.47188987    0.85800081    0.32417990    -0.00850000
opls_148-186    C    0.56078009    0.82789933    0.22926994    -0.46460000
opls_148-187    C    0.45747992    0.33149990    0.23027002    -0.46360000
opls_148-188    C    0.49953009    0.93339963    0.37990997    -0.45950000
opls_145-189    C    0.67037996    0.00000000    0.94827992    -0.13330000
opls_700-190    C    0.94806001    0.21590014    0.65596996    0.05890000
opls_700-191    C    0.55435999    0.29609905    0.65846990    0.06060000
opls_145-192    C    0.58745988    0.22089913    0.65909991    -0.13650000
opls_145-193    C    0.60290006    0.59929978    0.62231012    0.17970000
opls_145-194    C    0.93484996    0.96290035    0.66634996    -0.13600000
opls_145-195    C    0.54638006    0.52049929    0.63875992    -0.12400000
opls_145-196    C    0.61138000    0.37599959    0.64232007    -0.18610000
opls_145-197    C    0.93409009    0.31330018    0.62584990    -0.13870000
opls_145-198    C    0.89590006    0.93449970    0.62060995    0.17100000
opls_145-199    C    0.91031004    0.16869901    0.60782991    -0.18610000
opls_145-200    C    0.56969998    0.66280089    0.62017999    -0.17680000
opls_145-201    C    0.90757005    0.84180028    0.65132995    -0.19030000
opls_700-202    C    0.27088010    0.57089913    0.01987997    0.01840000
opls_145-203    C    0.24556990    0.73110006    0.03425009    -0.10110000
opls_700-204    C    0.22477990    0.90590014    0.01603003    0.02170000
opls_700-205    C    0.20736993    0.10950071    0.95780995    0.06050000
opls_700-206    C    0.30066000    0.44690075    0.96521011    0.06000000
opls_145-207    C    0.29289004    0.27899939    0.93789991    -0.13750000
opls_145-208    C    0.31659990    0.11360057    0.92252003    -0.12880000
opls_700-209    C    0.34898999    0.11850010    0.93325990    0.05050000
opls_145-210    C    0.35716991    0.30339963    0.95865992    -0.13630000
opls_145-211    C    0.33355006    0.46730059    0.97404005    -0.13590000
opls_145-212    C    0.20320007    0.04449970    0.92370998    -0.13860000
opls_145-213    C    0.18381996    0.20290035    0.90248995    -0.13680000
opls_700-214    C    0.16660995    0.42920032    0.91417000    0.05310000
opls_145-215    C    0.19145994    0.34859955    0.96869994    -0.16520000
opls_142-216    C    0.37531006    0.94280089    0.91858012    0.07960000
opls_142-217    C    0.14513998    0.58599959    0.89084991    0.07960000
opls_700-218    C    0.02839000    0.37929978    0.21203008    0.05050000
opls_700-219    C    0.00068010    0.48309925    0.23030009    -0.03480000
opls_700-220    C    0.97728988    0.63119951    0.21209991    0.05250000
opls_700-221    C    0.02367991    0.62709965    0.32522993    -0.03220000
opls_700-222    C    0.99896999    0.46859955    0.34281996    0.05150000
opls_700-223    C    0.97187992    0.35800081    0.32469012    -0.00850000
opls_148-224    C    0.06078010    0.32789933    0.22875996    -0.46460000
opls_148-225    C    0.95747991    0.83149990    0.23077999    -0.46360000
opls_148-226    C    0.99953008    0.43339963    0.38041995    -0.44270000
opls_145-227    C    0.17037996    0.50000000    0.94777988    -0.13330000
opls_700-228    C    0.55047996    0.71590014    0.84555998    0.05890000
opls_700-229    C    0.94417999    0.79609905    0.84306004    0.06060000
opls_145-230    C    0.91108010    0.72089913    0.84243002    -0.17200000
opls_145-231    C    0.89564987    0.09929978    0.87921012    0.17980000
opls_145-232    C    0.56369002    0.46290035    0.83517998    -0.13600000
opls_145-233    C    0.95215992    0.02049929    0.86277002    -0.12400000
opls_145-234    C    0.88716993    0.87599959    0.85921011    -0.18610000
opls_145-235    C    0.56444989    0.81330018    0.87568003    -0.13860000
opls_145-236    C    0.60263993    0.43449970    0.88091005    0.17240000
opls_145-237    C    0.58822994    0.66869901    0.89370002    -0.18620000
opls_145-238    C    0.92884000    0.16280089    0.88134994    -0.17510000
opls_145-239    C    0.59096993    0.34180028    0.85019999    -0.18790000
opls_700-240    C    0.22862991    0.07089913    0.48063001    0.01670000
opls_145-241    C    0.25395006    0.23110006    0.46625989    -0.10110000
opls_700-242    C    0.27473011    0.40590014    0.48447995    0.02270000
opls_700-243    C    0.29117007    0.60950071    0.54270002    0.06050000
opls_700-244    C    0.19788000    0.94690075    0.53530011    0.06010000
opls_145-245    C    0.20564996    0.77899939    0.56261007    -0.15190000
opls_145-246    C    0.18194010    0.61360057    0.57798995    -0.12880000
opls_700-247    C    0.14955000    0.61850010    0.56725008    0.05050000
opls_145-248    C    0.14137010    0.80339963    0.54184012    -0.13630000
opls_145-249    C    0.16498994    0.96730059    0.52646993    -0.13520000
opls_145-250    C    0.29533993    0.54449970    0.57680000    -0.13860000
opls_145-251    C    0.31472004    0.70290035    0.59802003    -0.13680000
opls_700-252    C    0.33193005    0.92920032    0.58633998    0.05310000
opls_145-253    C    0.30708006    0.84859955    0.53181004    -0.18610000
opls_142-254    C    0.12323989    0.44280089    0.58193011    0.07960000
opls_142-255    C    0.35340997    0.08599959    0.60966007    0.07960000
opls_700-256    C    0.47112001    0.87929978    0.28847990    0.05060000
opls_700-257    C    0.49884010    0.98309925    0.27020989    -0.03480000
opls_700-258    C    0.52222011    0.13119951    0.28943002    0.05370000
opls_700-259    C    0.47583009    0.12709965    0.17528999    -0.03480000
opls_700-260    C    0.50054995    0.96859955    0.15870997    0.05050000
opls_700-261    C    0.52763007    0.85800081    0.17684006    -0.00850000
opls_148-262    C    0.43874010    0.82789933    0.27175002    -0.46450000
opls_148-263    C    0.54204003    0.33149990    0.27074994    -0.46410000
opls_148-264    C    0.49997991    0.93339963    0.12110998    -0.45950000
opls_145-265    C    0.32816003    0.00000000    0.55274004    -0.13330000
opls_700-266    C    0.05047997    0.21590014    0.84505000    0.05890000
opls_700-267    C    0.44418000    0.29609905    0.84255006    0.06060000
opls_145-268    C    0.41107987    0.22089913    0.84192004    -0.17200000
opls_145-269    C    0.39564988    0.59929978    0.87869989    0.17970000
opls_145-270    C    0.06369003    0.96290035    0.83467000    -0.13670000
opls_145-271    C    0.45215993    0.52049929    0.86226004    -0.12400000
opls_145-272    C    0.38716994    0.37599959    0.85869988    -0.18610000
opls_145-273    C    0.06444990    0.31330018    0.87517006    -0.13870000
opls_145-274    C    0.10264987    0.93449970    0.88041001    0.17240000
opls_145-275    C    0.08822995    0.16869901    0.89319005    -0.18670000
opls_145-276    C    0.42884001    0.66280089    0.88083996    -0.17510000
opls_145-277    C    0.09097988    0.84180028    0.84969001    -0.18990000
opls_700-278    C    0.72862990    0.57089913    0.48113999    0.01670000
opls_145-279    C    0.75395005    0.73110006    0.46677012    -0.10110000
opls_700-280    C    0.77473010    0.90590014    0.48498993    0.02270000
opls_700-281    C    0.79117006    0.10950071    0.54321000    0.06040000
opls_700-282    C    0.69787999    0.44690075    0.53581009    0.06000000
opls_145-283    C    0.70564995    0.27899939    0.56312005    -0.15200000
opls_145-284    C    0.68194009    0.11360057    0.57849993    -0.12880000
opls_700-285    C    0.64954999    0.11850010    0.56776006    0.05040000
opls_145-286    C    0.64137009    0.30339963    0.54235010    -0.13630000
opls_145-287    C    0.66498993    0.46730059    0.52697991    -0.13520000
opls_145-288    C    0.79533992    0.04449970    0.57730998    -0.13860000
opls_145-289    C    0.81472003    0.20290035    0.59853001    -0.13680000
opls_700-290    C    0.83193004    0.42920032    0.58684996    0.05310000
opls_145-291    C    0.80708005    0.34859955    0.53232002    -0.16520000
opls_142-292    C    0.62322993    0.94280089    0.58244008    0.07960000
opls_142-293    C    0.85340996    0.58599959    0.61017005    0.07960000
opls_700-294    C    0.97112000    0.37929978    0.28898988    0.05050000
opls_700-295    C    0.99884009    0.48309925    0.27072012    -0.03480000
opls_700-296    C    0.02221988    0.63119951    0.28892004    0.05240000
opls_700-297    C    0.97583008    0.62709965    0.17579997    -0.03220000
opls_700-298    C    0.00054996    0.46859955    0.15819999    0.05150000
opls_700-299    C    0.02763008    0.35800081    0.17633008    -0.00850000
opls_148-300    C    0.93874009    0.32789933    0.27226000    -0.46450000
opls_148-301    C    0.04204004    0.83149990    0.27023996    -0.46430000
opls_148-302    C    0.99997992    0.43339963    0.12060001    -0.44260000
opls_145-303    C    0.82816003    0.50000000    0.55324008    -0.13330000
opls_750-304    N    0.62671002    0.71440024    0.40093988    -0.33980000
opls_750-305    N    0.87102010    0.73840065    0.39559008    -0.26780000
opls_750-306    N    0.12671003    0.21440024    0.40042990    -0.33990000
opls_750-307    N    0.37102011    0.23840065    0.39508010    -0.26780000
opls_750-308    N    0.37279998    0.71440024    0.10008008    -0.33970000
opls_750-309    N    0.12850009    0.73840065    0.10542988    -0.26770000
opls_750-310    N    0.87279997    0.21440024    0.10059005    -0.33990000
opls_750-311    N    0.62850008    0.23840065    0.10594011    -0.26780000
opls_750-312    N    0.37231994    0.28559976    0.60008008    -0.33990000
opls_750-313    N    0.12801011    0.26159935    0.60542988    -0.26780000
opls_750-314    N    0.87231993    0.78559976    0.60059005    -0.33990000
opls_750-315    N    0.62801010    0.76159935    0.60594011    -0.26780000
opls_750-316    N    0.62622999    0.28559976    0.90093988    -0.33990000
opls_750-317    N    0.87052988    0.26159935    0.89559008    -0.26760000
opls_750-318    N    0.12623000    0.78559976    0.90042990    -0.33990000
opls_750-319    N    0.37052989    0.76159935    0.89508010    -0.26770000
opls_146-320    H    0.90378007    0.45979907    0.32952001    0.11500000
opls_146-321    H    0.55358991    0.65550030    0.31597004    0.22920000
opls_146-322    H    0.97774988    0.92580069    0.36500006    0.09150000
opls_146-323    H    0.86235001    0.18320073    0.35728004    0.10940000
opls_146-324    H    0.55862994    0.99459915    0.38616989    0.23610000
opls_146-325    H    0.59669005    0.25370002    0.41750996    0.11130000
opls_146-326    H    0.93731002    0.67459915    0.39695996    0.08590000
opls_146-327    H    0.60096990    0.84149990    0.33910994    0.11190000
opls_146-328    H    0.25809000    0.78409986    0.93986005    0.11550000
opls_146-329    H    0.23093009    0.23100061    0.07132991    0.11220000
opls_146-330    H    0.18960994    0.51969961    0.09809012    0.10930000
opls_146-331    H    0.11696992    0.18030039    0.03342000    0.10950000
opls_146-332    H    0.15818991    0.89700020    0.00686011    0.09250000
opls_146-333    H    0.28482002    0.63449970    0.08739001    0.11810000
opls_146-334    H    0.31747995    0.35749949    0.12381993    0.11170000
opls_146-335    H    0.34116010    0.82789933    0.04284989    0.23620000
opls_146-336    H    0.30369011    0.07349909    0.00721003    0.09270000
opls_144-337    H    0.09972991    0.52690075    0.07199994    0.09570000
opls_144-338    H    0.35426998    0.97819972    0.13536006    0.11380000
opls_702-339    H    0.42124004    0.00690075    0.77842994    0.16460000
opls_702-340    H    0.43857991    0.16850010    0.74445001    0.11580000
opls_702-341    H    0.42733989    0.36700020    0.77964002    0.10010000
opls_702-342    H    0.54088004    0.68489953    0.74365000    0.11920000
opls_702-343    H    0.52895000    0.47599959    0.77483996    0.12840000
opls_702-344    H    0.56753992    0.67620053    0.77778004    0.16360000
opls_702-345    H    0.48370007    0.24039984    0.61448995    0.16370000
opls_702-346    H    0.49231007    0.87859955    0.60799990    0.09980000
opls_702-347    H    0.52321003    0.11290035    0.60992997    0.11960000
opls_146-348    H    0.40378008    0.95979907    0.32901003    0.11500000
opls_146-349    H    0.05358992    0.15550030    0.31546006    0.22910000
opls_146-350    H    0.47774989    0.42580069    0.36449008    0.09150000
opls_146-351    H    0.36235002    0.68320073    0.35677007    0.10940000
opls_146-352    H    0.05862995    0.49459915    0.38565991    0.23620000
opls_146-353    H    0.09670001    0.75370002    0.41699998    0.11240000
opls_146-354    H    0.43731998    0.17459915    0.39644998    0.08590000
opls_146-355    H    0.10096991    0.34149990    0.33859996    0.11190000
opls_146-356    H    0.75808999    0.28409986    0.94037003    0.11550000
opls_146-357    H    0.73093007    0.73100061    0.07185007    0.11480000
opls_146-358    H    0.68959999    0.01969961    0.09860009    0.10820000
opls_146-359    H    0.61696991    0.68030039    0.03392998    0.10950000
opls_146-360    H    0.65818990    0.39700020    0.00737009    0.09250000
opls_146-361    H    0.78481006    0.13449970    0.08789999    0.11770000
opls_146-362    H    0.81747994    0.85749949    0.12432991    0.11170000
opls_146-363    H    0.84116009    0.32789933    0.04336011    0.23610000
opls_146-364    H    0.80369010    0.57349909    0.00772001    0.09270000
opls_144-365    H    0.59972990    0.02690075    0.07250992    0.09570000
opls_144-366    H    0.85426997    0.47819972    0.13587004    0.11370000
opls_702-367    H    0.92124003    0.50690075    0.77893992    0.16470000
opls_702-368    H    0.93857990    0.66850010    0.74495998    0.11580000
opls_702-369    H    0.92733988    0.86700020    0.78015000    0.10010000
opls_702-370    H    0.04088005    0.18489953    0.74314002    0.11910000
opls_702-371    H    0.02895001    0.97599959    0.77432998    0.12840000
opls_702-372    H    0.06754988    0.17620053    0.77727006    0.16380000
opls_702-373    H    0.98370006    0.74039984    0.61499993    0.11960000
opls_702-374    H    0.99231006    0.37859955    0.60850988    0.11320000
opls_702-375    H    0.02321004    0.61290035    0.60941999    0.11960000
opls_146-376    H    0.09572993    0.45979907    0.17149995    0.11660000
opls_146-377    H    0.44592008    0.65550030    0.18506011    0.22910000
opls_146-378    H    0.02177007    0.92580069    0.13601990    0.09150000
opls_146-379    H    0.13715999    0.18320073    0.14373991    0.10940000
opls_146-380    H    0.44089001    0.99459915    0.11485007    0.23610000
opls_146-381    H    0.40281995    0.25370002    0.08351000    0.11240000
opls_146-382    H    0.06219998    0.67459915    0.10406000    0.08590000
opls_146-383    H    0.39854010    0.84149990    0.16191001    0.11190000
opls_146-384    H    0.74045994    0.78409986    0.56115991    0.11710000
opls_146-385    H    0.76857992    0.23100061    0.42968011    0.11480000
opls_146-386    H    0.80991000    0.51969961    0.40293009    0.10810000
opls_146-387    H    0.88255003    0.18030039    0.46759995    0.11170000
opls_146-388    H    0.84132009    0.89700020    0.49416010    0.09250000
opls_146-389    H    0.71469993    0.63449970    0.41362995    0.11810000
opls_146-390    H    0.68203005    0.35749949    0.37720003    0.11170000
opls_146-391    H    0.65836009    0.82789933    0.45817007    0.23620000
opls_146-392    H    0.69581989    0.07349909    0.49380992    0.09270000
opls_144-393    H    0.89978009    0.52690075    0.42902002    0.09570000
opls_144-394    H    0.64524997    0.97819972    0.36565990    0.11370000
opls_702-395    H    0.57729995    0.00690075    0.72259002    0.16460000
opls_702-396    H    0.55997002    0.16850010    0.75656995    0.11580000
opls_702-397    H    0.57120010    0.36700020    0.72137993    0.10010000
opls_702-398    H    0.45765995    0.68489953    0.75736996    0.11910000
opls_702-399    H    0.46958999    0.47599959    0.72618000    0.12840000
opls_702-400    H    0.43100007    0.67620053    0.72323992    0.16350000
opls_702-401    H    0.51483992    0.24039984    0.88653000    0.16440000
opls_702-402    H    0.50622992    0.87859955    0.89302005    0.09980000
opls_702-403    H    0.47532996    0.11290035    0.89108999    0.12000000
opls_146-404    H    0.59572992    0.95979907    0.17200993    0.11660000
opls_146-405    H    0.94592008    0.15550030    0.18555990    0.22900000
opls_146-406    H    0.52177006    0.42580069    0.13652988    0.09150000
opls_146-407    H    0.63715998    0.68320073    0.14424989    0.10940000
opls_146-408    H    0.94089000    0.49459915    0.11536005    0.23610000
opls_146-409    H    0.90281994    0.75370002    0.08401997    0.11130000
opls_146-410    H    0.56219997    0.17459915    0.10456998    0.08590000
opls_146-411    H    0.89854009    0.34149990    0.16241999    0.11200000
opls_146-412    H    0.24045995    0.28409986    0.56064993    0.11710000
opls_146-413    H    0.26857993    0.73100061    0.42916988    0.11220000
opls_146-414    H    0.30991001    0.01969961    0.40242011    0.10820000
opls_146-415    H    0.38255004    0.68030039    0.46708998    0.11210000
opls_146-416    H    0.34132010    0.39700020    0.49365012    0.09250000
opls_146-417    H    0.21469994    0.13449970    0.41311997    0.11810000
opls_146-418    H    0.18203006    0.85749949    0.37669005    0.11170000
opls_146-419    H    0.15836010    0.32789933    0.45766009    0.23610000
opls_146-420    H    0.19581990    0.57349909    0.49329994    0.09270000
opls_144-421    H    0.39978010    0.02690075    0.42851004    0.09570000
opls_144-422    H    0.14524998    0.47819972    0.36514992    0.11380000
opls_702-423    H    0.07729996    0.50690075    0.72208004    0.16460000
opls_702-424    H    0.05997003    0.66850010    0.75605997    0.11580000
opls_702-425    H    0.07120011    0.86700020    0.72086996    0.10010000
opls_702-426    H    0.95765994    0.18489953    0.75787994    0.11920000
opls_702-427    H    0.96958998    0.97599959    0.72668998    0.12840000
opls_702-428    H    0.93100006    0.17620053    0.72374989    0.16350000
opls_702-429    H    0.01483993    0.74039984    0.88602002    0.11960000
opls_702-430    H    0.00622993    0.37859955    0.89251007    0.11110000
opls_702-431    H    0.97532995    0.61290035    0.89159997    0.11960000
opls_146-432    H    0.09524990    0.54020093    0.67149995    0.11500000
opls_146-433    H    0.44543010    0.34449970    0.68506011    0.22900000
opls_146-434    H    0.02128009    0.07419931    0.63601990    0.09150000
opls_146-435    H    0.13667001    0.81679927    0.64373991    0.10970000
opls_146-436    H    0.44040003    0.00540085    0.61485007    0.23610000
opls_146-437    H    0.40232997    0.74629998    0.58351000    0.11240000
opls_146-438    H    0.06171000    0.32540085    0.60406000    0.08600000
opls_146-439    H    0.39806007    0.15850010    0.66191001    0.11190000
opls_146-440    H    0.74093997    0.21590014    0.06115991    0.11550000
opls_146-441    H    0.76809989    0.76899939    0.92968011    0.11480000
opls_146-442    H    0.80942002    0.48030039    0.90293009    0.10810000
opls_146-443    H    0.88206005    0.81969961    0.96759995    0.11380000
opls_146-444    H    0.84082987    0.10299980    0.99416010    0.09250000
opls_146-445    H    0.71420995    0.36550030    0.91362995    0.11810000
opls_146-446    H    0.68155002    0.64250051    0.87720003    0.11180000
opls_146-447    H    0.65786987    0.17210067    0.95817007    0.23610000
opls_146-448    H    0.69532992    0.92650091    0.99380992    0.09280000
opls_144-449    H    0.89930006    0.47309925    0.92902002    0.09570000
opls_144-450    H    0.64475999    0.02180028    0.86565990    0.11370000
opls_702-451    H    0.57777998    0.99309925    0.22259002    0.10010000
opls_702-452    H    0.56045006    0.83149990    0.25656995    0.11580000
opls_702-453    H    0.57169008    0.63299980    0.22137993    0.10010000
opls_702-454    H    0.45814993    0.31510047    0.25736996    0.11910000
opls_702-455    H    0.47007997    0.52400041    0.22618000    0.12840000
opls_702-456    H    0.43148010    0.32379947    0.22323992    0.16380000
opls_702-457    H    0.51531995    0.75960016    0.38653000    0.16440000
opls_702-458    H    0.50671990    0.12140045    0.39302005    0.09980000
opls_702-459    H    0.47581994    0.88709965    0.39108999    0.11960000
opls_146-460    H    0.59524989    0.04020093    0.67200993    0.11500000
opls_146-461    H    0.94543010    0.84449970    0.68555990    0.22900000
opls_146-462    H    0.52128008    0.57419931    0.63652988    0.09150000
opls_146-463    H    0.63667000    0.31679927    0.64424989    0.10970000
opls_146-464    H    0.94040002    0.50540085    0.61536005    0.23610000
opls_146-465    H    0.90232996    0.24629998    0.58401997    0.11240000
opls_146-466    H    0.56170999    0.82540085    0.60456998    0.08590000
opls_146-467    H    0.89806006    0.65850010    0.66241999    0.11200000
opls_146-468    H    0.24093998    0.71590014    0.06064993    0.11550000
opls_146-469    H    0.26809989    0.26899939    0.92918007    0.11220000
opls_146-470    H    0.30942003    0.98030039    0.90242011    0.10810000
opls_146-471    H    0.38206006    0.31969961    0.96708998    0.11380000
opls_146-472    H    0.34084007    0.60299980    0.99365012    0.09690000
opls_146-473    H    0.21420996    0.86550030    0.91311997    0.11810000
opls_146-474    H    0.18155003    0.14250051    0.87669005    0.11170000
opls_146-475    H    0.15786988    0.67210067    0.95766009    0.23610000
opls_146-476    H    0.19533987    0.42650091    0.99329994    0.09270000
opls_144-477    H    0.39930007    0.97309925    0.92851004    0.09570000
opls_144-478    H    0.14476000    0.52180028    0.86514992    0.11370000
opls_702-479    H    0.07777999    0.49309925    0.22208004    0.10010000
opls_702-480    H    0.06045007    0.33149990    0.25605997    0.11580000
opls_702-481    H    0.07169009    0.13299980    0.22086996    0.10020000
opls_702-482    H    0.95814992    0.81510047    0.25787994    0.11910000
opls_702-483    H    0.97007996    0.02400041    0.22668998    0.12840000
opls_702-484    H    0.93148009    0.82379947    0.22374989    0.16380000
opls_702-485    H    0.01532991    0.25960016    0.38602002    0.11960000
opls_702-486    H    0.00671991    0.62140045    0.39251007    0.11110000
opls_702-487    H    0.97581994    0.38709965    0.39159002    0.11560000
opls_146-488    H    0.90329009    0.54020093    0.82952001    0.11500000
opls_146-489    H    0.55310988    0.34449970    0.81597004    0.22900000
opls_146-490    H    0.97725990    0.07419931    0.86500006    0.09150000
opls_146-491    H    0.86186998    0.81679927    0.85728004    0.10940000
opls_146-492    H    0.55813996    0.00540085    0.88616989    0.23610000
opls_146-493    H    0.59621002    0.74629998    0.91750996    0.11240000
opls_146-494    H    0.93682999    0.32540085    0.89695996    0.08590000
opls_146-495    H    0.60048987    0.15850010    0.83910994    0.11580000
opls_146-496    H    0.25857003    0.21590014    0.43986005    0.11710000
opls_146-497    H    0.23045005    0.76899939    0.57134010    0.11220000
opls_146-498    H    0.18911996    0.48030039    0.59809012    0.10810000
opls_146-499    H    0.11647994    0.81969961    0.53342000    0.10950000
opls_146-500    H    0.15770988    0.10299980    0.50686011    0.09260000
opls_146-501    H    0.28433004    0.36550030    0.58739001    0.11810000
opls_146-502    H    0.31698997    0.64250051    0.62381993    0.11170000
opls_146-503    H    0.34066988    0.17210067    0.54284989    0.23610000
opls_146-504    H    0.30321007    0.92650091    0.50721003    0.09270000
opls_144-505    H    0.09923993    0.47309925    0.57199994    0.09580000
opls_144-506    H    0.35378000    0.02180028    0.63536006    0.11370000
opls_702-507    H    0.42173002    0.99309925    0.27842994    0.16460000
opls_702-508    H    0.43905994    0.83149990    0.24445001    0.11580000
opls_702-509    H    0.42783011    0.63299980    0.27964002    0.10010000
opls_702-510    H    0.54136007    0.31510047    0.24365000    0.11910000
opls_702-511    H    0.52943003    0.52400041    0.27483996    0.11690000
opls_702-512    H    0.56802990    0.32379947    0.27778004    0.16360000
opls_702-513    H    0.48419005    0.75960016    0.11448995    0.16440000
opls_702-514    H    0.49279010    0.12140045    0.10799990    0.09980000
opls_702-515    H    0.52369006    0.88709965    0.10992997    0.11960000
opls_146-516    H    0.40329010    0.04020093    0.82901003    0.11500000
opls_146-517    H    0.05310990    0.84449970    0.81545012    0.22900000
opls_146-518    H    0.47725991    0.57419931    0.86449008    0.09150000
opls_146-519    H    0.36186999    0.31679927    0.85677007    0.10940000
opls_146-520    H    0.05813997    0.50540085    0.88565991    0.23610000
opls_146-521    H    0.09621003    0.24629998    0.91699998    0.11250000
opls_146-522    H    0.43683000    0.82540085    0.89644998    0.08590000
opls_146-523    H    0.10048988    0.65850010    0.83859996    0.11190000
opls_146-524    H    0.75857002    0.71590014    0.44037003    0.11710000
opls_146-525    H    0.73044009    0.26899939    0.57185007    0.11480000
opls_146-526    H    0.68911995    0.98030039    0.59860009    0.10810000
opls_146-527    H    0.61647993    0.31969961    0.53392998    0.10950000
opls_146-528    H    0.65771011    0.60299980    0.50737009    0.09250000
opls_146-529    H    0.78433003    0.86550030    0.58789999    0.11810000
opls_146-530    H    0.81698996    0.14250051    0.62432991    0.11190000
opls_146-531    H    0.84067011    0.67210067    0.54336011    0.23620000
opls_146-532    H    0.80321006    0.42650091    0.50772001    0.09270000
opls_144-533    H    0.59923992    0.97309925    0.57250992    0.09570000
opls_144-534    H    0.85377999    0.52180028    0.63587004    0.11370000
opls_702-535    H    0.92173001    0.49309925    0.27893992    0.16460000
opls_702-536    H    0.93905993    0.33149990    0.24495998    0.11590000
opls_702-537    H    0.92783010    0.13299980    0.28015000    0.10010000
opls_702-538    H    0.04136008    0.81510047    0.24314002    0.11910000
opls_702-539    H    0.02943004    0.02400041    0.27432998    0.11680000
opls_702-540    H    0.06802991    0.82379947    0.27727006    0.16350000
opls_702-541    H    0.98419004    0.25960016    0.11499993    0.11730000
opls_702-542    H    0.99279009    0.62140045    0.10850988    0.11320000
opls_702-543    H    0.02369007    0.38709965    0.10941999    0.11960000
