#======================================================================
# Crystal Data Generated By AuToFF
#----------------------------------------------------------------------

data_AuToFF_phase_1

_cell_length_a                         32.5900
_cell_length_b                         32.5900
_cell_length_c                         32.5900
_cell_angle_alpha                      90.00
_cell_angle_beta                       90.00
_cell_angle_gamma                      90.00
_symmetry_space_group_name_H-M_alt     'P 1'
_symmetry_space_group_IT_number        1

loop_
_space_group_symop_operation_xyz
   'x, y, z'

loop_
   _atom_site_label
   _atom_site_type_symbol
   _atom_site_fract_x
   _atom_site_fract_y
   _atom_site_fract_z
   _atom_site_charge
opls_700-0    C    0.24454986    0.69810003    0.86489015    0.04740000
opls_166-1    C    0.24398987    0.71130009    0.82374992    -0.07140000
opls_145-2    C    0.24620988    0.65567996    0.87296993    -0.11020000
opls_142-3    C    0.24976005    0.61052992    0.76533998    0.08070000
opls_166-4    C    0.24447008    0.68249985    0.79172998    -0.07060000
opls_142-5    C    0.27225990    0.89930009    0.75664007    0.07810000
opls_145-6    C    0.24806996    0.62703989    0.84074010    -0.11330000
opls_700-7    C    0.24671985    0.64015005    0.79974010    0.04350000
opls_145-8    C    0.39839000    0.69091010    0.76093986    0.22120000
opls_145-9    C    0.42389997    0.68118012    0.72754004    -0.15460000
opls_145-10    C    0.43608990    0.64039000    0.72086008    -0.11190000
opls_700-11    C    0.42322001    0.60889997    0.74767014    0.10830000
opls_145-12    C    0.39771003    0.61937005    0.78094998    -0.10290000
opls_145-13    C    0.38562013    0.65977999    0.78740994    -0.15230000
opls_700-14    C    0.43239000    0.56701994    0.74059988    0.03570000
opls_145-15    C    0.39935993    0.53937005    0.74096993    -0.15090000
opls_700-16    C    0.40483001    0.49674010    0.74047990    0.03470000
opls_700-17    C    0.44547990    0.48081988    0.73825990    0.02460000
opls_700-18    C    0.47957011    0.50806014    0.73733998    -0.00200000
opls_700-19    C    0.47303007    0.55128997    0.73761000    0.02880000
opls_145-20    C    0.49252010    0.42276005    0.73691991    -0.11310000
opls_145-21    C    0.45303007    0.43844001    0.73530991    -0.10780000
opls_700-22    C    0.63059988    0.52816999    0.74464989    0.10580000
opls_145-23    C    0.66606014    0.52008990    0.72113992    -0.11330000
opls_145-24    C    0.70100000    0.54476005    0.72481988    -0.14560000
opls_145-25    C    0.70133998    0.57779012    0.75254004    0.22550000
opls_145-26    C    0.66679994    0.58510985    0.77689015    -0.14430000
opls_145-27    C    0.63211998    0.56018994    0.77366002    -0.11270000
opls_700-28    C    0.75545014    0.30189997    0.86489015    0.04740000
opls_166-29    C    0.75601013    0.28869991    0.82374992    -0.07140000
opls_145-30    C    0.75379012    0.34432004    0.87296993    -0.11010000
opls_142-31    C    0.75023995    0.38947008    0.76533998    0.08080000
opls_166-32    C    0.75552992    0.31749985    0.79172998    -0.07060000
opls_142-33    C    0.72774010    0.10069991    0.75664007    0.07830000
opls_145-34    C    0.75193004    0.37296011    0.84074010    -0.11330000
opls_700-35    C    0.75328015    0.35984995    0.79974010    0.04350000
opls_145-36    C    0.60161000    0.30908990    0.76093986    0.22110000
opls_145-37    C    0.57610003    0.31881988    0.72754004    -0.15460000
opls_145-38    C    0.56391010    0.35961000    0.72086008    -0.11190000
opls_700-39    C    0.57677999    0.39110003    0.74767014    0.10830000
opls_145-40    C    0.60228997    0.38062995    0.78094998    -0.10290000
opls_145-41    C    0.61437987    0.34022001    0.78740994    -0.15230000
opls_700-42    C    0.56761000    0.43298006    0.74059988    0.03570000
opls_145-43    C    0.60064007    0.46062995    0.74096993    -0.15090000
opls_700-44    C    0.59516999    0.50325990    0.74047990    0.03470000
opls_700-45    C    0.55452010    0.51918012    0.73825990    0.02460000
opls_700-46    C    0.52042989    0.49193986    0.73733998    -0.00200000
opls_700-47    C    0.52696993    0.44871003    0.73761000    0.02880000
opls_145-48    C    0.50747990    0.57723995    0.73691991    -0.11310000
opls_145-49    C    0.54696993    0.56155999    0.73530991    -0.10780000
opls_700-50    C    0.36940012    0.47183001    0.74464989    0.10580000
opls_145-51    C    0.33393986    0.47991010    0.72113992    -0.11330000
opls_145-52    C    0.29900000    0.45523995    0.72481988    -0.14560000
opls_145-53    C    0.29866002    0.42220988    0.75254004    0.22550000
opls_145-54    C    0.33320006    0.41489015    0.77689015    -0.14430000
opls_145-55    C    0.36788002    0.43981006    0.77366002    -0.11270000
opls_700-56    C    0.75545014    0.69810003    0.13510985    0.04740000
opls_166-57    C    0.75601013    0.71130009    0.17625008    -0.07140000
opls_145-58    C    0.75379012    0.65567996    0.12703007    -0.11020000
opls_142-59    C    0.75023995    0.61052992    0.23466002    0.08070000
opls_166-60    C    0.75552992    0.68249985    0.20827002    -0.07060000
opls_142-61    C    0.72774010    0.89930009    0.24335993    0.07810000
opls_145-62    C    0.75193004    0.62703989    0.15925990    -0.11330000
opls_700-63    C    0.75328015    0.64015005    0.20025990    0.04360000
opls_145-64    C    0.60161000    0.69091010    0.23906014    0.22110000
opls_145-65    C    0.57610003    0.68118012    0.27245996    -0.15460000
opls_145-66    C    0.56391010    0.64039000    0.27913992    -0.11190000
opls_700-67    C    0.57677999    0.60889997    0.25232986    0.10830000
opls_145-68    C    0.60228997    0.61937005    0.21905002    -0.10290000
opls_145-69    C    0.61437987    0.65977999    0.21259006    -0.15230000
opls_700-70    C    0.56761000    0.56701994    0.25940012    0.03570000
opls_145-71    C    0.60064007    0.53937005    0.25903007    -0.15090000
opls_700-72    C    0.59516999    0.49674010    0.25952010    0.03470000
opls_700-73    C    0.55452010    0.48081988    0.26174010    0.02460000
opls_700-74    C    0.52042989    0.50806014    0.26266002    -0.00200000
opls_700-75    C    0.52696993    0.55128997    0.26239000    0.02880000
opls_145-76    C    0.50747990    0.42276005    0.26308009    -0.11310000
opls_145-77    C    0.54696993    0.43844001    0.26469009    -0.10780000
opls_700-78    C    0.36940012    0.52816999    0.25535011    0.10580000
opls_145-79    C    0.33393986    0.52008990    0.27886008    -0.11330000
opls_145-80    C    0.29900000    0.54476005    0.27518012    -0.14560000
opls_145-81    C    0.29866002    0.57779012    0.24745996    0.22550000
opls_145-82    C    0.33320006    0.58510985    0.22310985    -0.14430000
opls_145-83    C    0.36788002    0.56018994    0.22633998    -0.11270000
opls_700-84    C    0.24454986    0.30189997    0.13510985    0.04740000
opls_166-85    C    0.24398987    0.28869991    0.17625008    -0.07140000
opls_145-86    C    0.24620988    0.34432004    0.12703007    -0.11020000
opls_142-87    C    0.24976005    0.38947008    0.23466002    0.08070000
opls_166-88    C    0.24447008    0.31749985    0.20827002    -0.07060000
opls_142-89    C    0.27225990    0.10069991    0.24335993    0.07810000
opls_145-90    C    0.24806996    0.37296011    0.15925990    -0.11330000
opls_700-91    C    0.24671985    0.35984995    0.20025990    0.04350000
opls_145-92    C    0.39839000    0.30908990    0.23906014    0.22110000
opls_145-93    C    0.42389997    0.31881988    0.27245996    -0.15460000
opls_145-94    C    0.43608990    0.35961000    0.27913992    -0.11190000
opls_700-95    C    0.42322001    0.39110003    0.25232986    0.10840000
opls_145-96    C    0.39771003    0.38062995    0.21905002    -0.10290000
opls_145-97    C    0.38562013    0.34022001    0.21259006    -0.15230000
opls_700-98    C    0.43239000    0.43298006    0.25940012    0.03570000
opls_145-99    C    0.39935993    0.46062995    0.25903007    -0.15090000
opls_700-100    C    0.40483001    0.50325990    0.25952010    0.03470000
opls_700-101    C    0.44547990    0.51918012    0.26174010    0.02460000
opls_700-102    C    0.47957011    0.49193986    0.26266002    -0.00200000
opls_700-103    C    0.47303007    0.44871003    0.26239000    0.02880000
opls_145-104    C    0.49252010    0.57723995    0.26308009    -0.11300000
opls_145-105    C    0.45303007    0.56155999    0.26469009    -0.10780000
opls_700-106    C    0.63059988    0.47183001    0.25535011    0.10580000
opls_145-107    C    0.66606014    0.47991010    0.27886008    -0.11330000
opls_145-108    C    0.70100000    0.45523995    0.27518012    -0.14560000
opls_145-109    C    0.70133998    0.42220988    0.24745996    0.22550000
opls_145-110    C    0.66679994    0.41489015    0.22310985    -0.14420000
opls_145-111    C    0.63211998    0.43981006    0.22633998    -0.11270000
opls_700-112    C    0.86489015    0.24454986    0.69810003    0.04750000
opls_166-113    C    0.82374992    0.24398987    0.71130009    -0.07140000
opls_145-114    C    0.87296993    0.24620988    0.65567996    -0.11020000
opls_142-115    C    0.76533998    0.24976005    0.61052992    0.08070000
opls_166-116    C    0.79172998    0.24447008    0.68249985    -0.07060000
opls_142-117    C    0.75664007    0.27225990    0.89930009    0.07810000
opls_145-118    C    0.84074010    0.24806996    0.62703989    -0.11330000
opls_700-119    C    0.79974010    0.24671985    0.64015005    0.04350000
opls_145-120    C    0.76093986    0.39839000    0.69091010    0.22110000
opls_145-121    C    0.72754004    0.42389997    0.68118012    -0.15460000
opls_145-122    C    0.72086008    0.43608990    0.64039000    -0.11190000
opls_700-123    C    0.74767014    0.42322001    0.60889997    0.10830000
opls_145-124    C    0.78094998    0.39771003    0.61937005    -0.10290000
opls_145-125    C    0.78740994    0.38562013    0.65977999    -0.15230000
opls_700-126    C    0.74059988    0.43239000    0.56701994    0.03570000
opls_145-127    C    0.74096993    0.39935993    0.53937005    -0.15090000
opls_700-128    C    0.74047990    0.40483001    0.49674010    0.03470000
opls_700-129    C    0.73825990    0.44547990    0.48081988    0.02460000
opls_700-130    C    0.73733998    0.47957011    0.50806014    -0.00200000
opls_700-131    C    0.73761000    0.47303007    0.55128997    0.02880000
opls_145-132    C    0.73691991    0.49252010    0.42276005    -0.11310000
opls_145-133    C    0.73530991    0.45303007    0.43844001    -0.10780000
opls_700-134    C    0.74464989    0.63059988    0.52816999    0.10580000
opls_145-135    C    0.72113992    0.66606014    0.52008990    -0.11330000
opls_145-136    C    0.72481988    0.70100000    0.54476005    -0.14560000
opls_145-137    C    0.75254004    0.70133998    0.57779012    0.22550000
opls_145-138    C    0.77689015    0.66679994    0.58510985    -0.14420000
opls_145-139    C    0.77366002    0.63211998    0.56018994    -0.11270000
opls_700-140    C    0.86489015    0.75545014    0.30189997    0.04740000
opls_166-141    C    0.82374992    0.75601013    0.28869991    -0.07140000
opls_145-142    C    0.87296993    0.75379012    0.34432004    -0.11020000
opls_142-143    C    0.76533998    0.75023995    0.38947008    0.08070000
opls_166-144    C    0.79172998    0.75552992    0.31749985    -0.07060000
opls_142-145    C    0.75664007    0.72774010    0.10069991    0.07810000
opls_145-146    C    0.84074010    0.75193004    0.37296011    -0.11330000
opls_700-147    C    0.79974010    0.75328015    0.35984995    0.04350000
opls_145-148    C    0.76093986    0.60161000    0.30908990    0.22110000
opls_145-149    C    0.72754004    0.57610003    0.31881988    -0.15450000
opls_145-150    C    0.72086008    0.56391010    0.35961000    -0.11190000
opls_700-151    C    0.74767014    0.57677999    0.39110003    0.10830000
opls_145-152    C    0.78094998    0.60228997    0.38062995    -0.10280000
opls_145-153    C    0.78740994    0.61437987    0.34022001    -0.15220000
opls_700-154    C    0.74059988    0.56761000    0.43298006    0.03570000
opls_145-155    C    0.74096993    0.60064007    0.46062995    -0.15090000
opls_700-156    C    0.74047990    0.59516999    0.50325990    0.03470000
opls_700-157    C    0.73825990    0.55452010    0.51918012    0.02460000
opls_700-158    C    0.73733998    0.52042989    0.49193986    -0.00200000
opls_700-159    C    0.73761000    0.52696993    0.44871003    0.02880000
opls_145-160    C    0.73691991    0.50747990    0.57723995    -0.11310000
opls_145-161    C    0.73530991    0.54696993    0.56155999    -0.10770000
opls_700-162    C    0.74464989    0.36940012    0.47183001    0.10580000
opls_145-163    C    0.72113992    0.33393986    0.47991010    -0.11320000
opls_145-164    C    0.72481988    0.29900000    0.45523995    -0.14560000
opls_145-165    C    0.75254004    0.29866002    0.42220988    0.22550000
opls_145-166    C    0.77689015    0.33320006    0.41489015    -0.14430000
opls_145-167    C    0.77366002    0.36788002    0.43981006    -0.11270000
opls_700-168    C    0.13510985    0.75545014    0.69810003    0.04740000
opls_166-169    C    0.17625008    0.75601013    0.71130009    -0.07140000
opls_145-170    C    0.12703007    0.75379012    0.65567996    -0.11020000
opls_142-171    C    0.23466002    0.75023995    0.61052992    0.08070000
opls_166-172    C    0.20827002    0.75552992    0.68249985    -0.07060000
opls_142-173    C    0.24335993    0.72774010    0.89930009    0.07810000
opls_145-174    C    0.15925990    0.75193004    0.62703989    -0.11330000
opls_700-175    C    0.20025990    0.75328015    0.64015005    0.04350000
opls_145-176    C    0.23906014    0.60161000    0.69091010    0.22120000
opls_145-177    C    0.27245996    0.57610003    0.68118012    -0.15460000
opls_145-178    C    0.27913992    0.56391010    0.64039000    -0.11190000
opls_700-179    C    0.25232986    0.57677999    0.60889997    0.10830000
opls_145-180    C    0.21905002    0.60228997    0.61937005    -0.10290000
opls_145-181    C    0.21259006    0.61437987    0.65977999    -0.15230000
opls_700-182    C    0.25940012    0.56761000    0.56701994    0.03570000
opls_145-183    C    0.25903007    0.60064007    0.53937005    -0.15090000
opls_700-184    C    0.25952010    0.59516999    0.49674010    0.03470000
opls_700-185    C    0.26174010    0.55452010    0.48081988    0.02460000
opls_700-186    C    0.26266002    0.52042989    0.50806014    -0.00200000
opls_700-187    C    0.26239000    0.52696993    0.55128997    0.02880000
opls_145-188    C    0.26308009    0.50747990    0.42276005    -0.11310000
opls_145-189    C    0.26469009    0.54696993    0.43844001    -0.10770000
opls_700-190    C    0.25535011    0.36940012    0.52816999    0.10590000
opls_145-191    C    0.27886008    0.33393986    0.52008990    -0.11330000
opls_145-192    C    0.27518012    0.29900000    0.54476005    -0.14550000
opls_145-193    C    0.24745996    0.29866002    0.57779012    0.22550000
opls_145-194    C    0.22310985    0.33320006    0.58510985    -0.14430000
opls_145-195    C    0.22633998    0.36788002    0.56018994    -0.11260000
opls_700-196    C    0.13510985    0.24454986    0.30189997    0.04740000
opls_166-197    C    0.17625008    0.24398987    0.28869991    -0.07140000
opls_145-198    C    0.12703007    0.24620988    0.34432004    -0.11020000
opls_142-199    C    0.23466002    0.24976005    0.38947008    0.08070000
opls_166-200    C    0.20827002    0.24447008    0.31749985    -0.07060000
opls_142-201    C    0.24335993    0.27225990    0.10069991    0.07810000
opls_145-202    C    0.15925990    0.24806996    0.37296011    -0.11330000
opls_700-203    C    0.20025990    0.24671985    0.35984995    0.04350000
opls_145-204    C    0.23906014    0.39839000    0.30908990    0.22120000
opls_145-205    C    0.27245996    0.42389997    0.31881988    -0.15460000
opls_145-206    C    0.27913992    0.43608990    0.35961000    -0.11190000
opls_700-207    C    0.25232986    0.42322001    0.39110003    0.10830000
opls_145-208    C    0.21905002    0.39771003    0.38062995    -0.10280000
opls_145-209    C    0.21259006    0.38562013    0.34022001    -0.15230000
opls_700-210    C    0.25940012    0.43239000    0.43298006    0.03570000
opls_145-211    C    0.25903007    0.39935993    0.46062995    -0.15090000
opls_700-212    C    0.25952010    0.40483001    0.50325990    0.03470000
opls_700-213    C    0.26174010    0.44547990    0.51918012    0.02460000
opls_700-214    C    0.26266002    0.47957011    0.49193986    -0.00200000
opls_700-215    C    0.26239000    0.47303007    0.44871003    0.02880000
opls_145-216    C    0.26308009    0.49252010    0.57723995    -0.11300000
opls_145-217    C    0.26469009    0.45303007    0.56155999    -0.10780000
opls_700-218    C    0.25535011    0.63059988    0.47183001    0.10580000
opls_145-219    C    0.27886008    0.66606014    0.47991010    -0.11330000
opls_145-220    C    0.27518012    0.70100000    0.45523995    -0.14550000
opls_145-221    C    0.24745996    0.70133998    0.42220988    0.22550000
opls_145-222    C    0.22310985    0.66679994    0.41489015    -0.14430000
opls_145-223    C    0.22633998    0.63211998    0.43981006    -0.11270000
opls_700-224    C    0.69810003    0.13510985    0.75545014    0.04740000
opls_166-225    C    0.71130009    0.17625008    0.75601013    -0.07140000
opls_145-226    C    0.65567996    0.12703007    0.75379012    -0.11020000
opls_142-227    C    0.61052992    0.23466002    0.75023995    0.08080000
opls_166-228    C    0.68249985    0.20827002    0.75552992    -0.07060000
opls_142-229    C    0.89930009    0.24335993    0.72774010    0.07810000
opls_145-230    C    0.62703989    0.15925990    0.75193004    -0.11330000
opls_700-231    C    0.64015005    0.20025990    0.75328015    0.04350000
opls_145-232    C    0.69091010    0.23906014    0.60161000    0.22110000
opls_145-233    C    0.68118012    0.27245996    0.57610003    -0.15460000
opls_145-234    C    0.64039000    0.27913992    0.56391010    -0.11190000
opls_700-235    C    0.60889997    0.25232986    0.57677999    0.10830000
opls_145-236    C    0.61937005    0.21905002    0.60228997    -0.10280000
opls_145-237    C    0.65977999    0.21259006    0.61437987    -0.15230000
opls_700-238    C    0.56701994    0.25940012    0.56761000    0.03570000
opls_145-239    C    0.53937005    0.25903007    0.60064007    -0.15090000
opls_700-240    C    0.49674010    0.25952010    0.59516999    0.03470000
opls_700-241    C    0.48081988    0.26174010    0.55452010    0.02460000
opls_700-242    C    0.50806014    0.26266002    0.52042989    -0.00200000
opls_700-243    C    0.55128997    0.26239000    0.52696993    0.02880000
opls_145-244    C    0.42276005    0.26308009    0.50747990    -0.11310000
opls_145-245    C    0.43844001    0.26469009    0.54696993    -0.10780000
opls_700-246    C    0.52816999    0.25535011    0.36940012    0.10580000
opls_145-247    C    0.52008990    0.27886008    0.33393986    -0.11330000
opls_145-248    C    0.54476005    0.27518012    0.29900000    -0.14560000
opls_145-249    C    0.57779012    0.24745996    0.29866002    0.22550000
opls_145-250    C    0.58510985    0.22310985    0.33320006    -0.14430000
opls_145-251    C    0.56018994    0.22633998    0.36788002    -0.11260000
opls_700-252    C    0.30189997    0.13510985    0.24454986    0.04740000
opls_166-253    C    0.28869991    0.17625008    0.24398987    -0.07140000
opls_145-254    C    0.34432004    0.12703007    0.24620988    -0.11020000
opls_142-255    C    0.38947008    0.23466002    0.24976005    0.08070000
opls_166-256    C    0.31749985    0.20827002    0.24447008    -0.07050000
opls_142-257    C    0.10069991    0.24335993    0.27225990    0.07810000
opls_145-258    C    0.37296011    0.15925990    0.24806996    -0.11320000
opls_700-259    C    0.35984995    0.20025990    0.24671985    0.04350000
opls_145-260    C    0.30908990    0.23906014    0.39839000    0.22110000
opls_145-261    C    0.31881988    0.27245996    0.42389997    -0.15460000
opls_145-262    C    0.35961000    0.27913992    0.43608990    -0.11190000
opls_700-263    C    0.39110003    0.25232986    0.42322001    0.10830000
opls_145-264    C    0.38062995    0.21905002    0.39771003    -0.10290000
opls_145-265    C    0.34022001    0.21259006    0.38562013    -0.15230000
opls_700-266    C    0.43298006    0.25940012    0.43239000    0.03570000
opls_145-267    C    0.46062995    0.25903007    0.39935993    -0.15090000
opls_700-268    C    0.50325990    0.25952010    0.40483001    0.03470000
opls_700-269    C    0.51918012    0.26174010    0.44547990    0.02460000
opls_700-270    C    0.49193986    0.26266002    0.47957011    -0.00200000
opls_700-271    C    0.44871003    0.26239000    0.47303007    0.02880000
opls_145-272    C    0.57723995    0.26308009    0.49252010    -0.11310000
opls_145-273    C    0.56155999    0.26469009    0.45303007    -0.10780000
opls_700-274    C    0.47183001    0.25535011    0.63059988    0.10580000
opls_145-275    C    0.47991010    0.27886008    0.66606014    -0.11330000
opls_145-276    C    0.45523995    0.27518012    0.70100000    -0.14560000
opls_145-277    C    0.42220988    0.24745996    0.70133998    0.22550000
opls_145-278    C    0.41489015    0.22310985    0.66679994    -0.14430000
opls_145-279    C    0.43981006    0.22633998    0.63211998    -0.11270000
opls_700-280    C    0.69810003    0.86489015    0.24454986    0.04740000
opls_166-281    C    0.71130009    0.82374992    0.24398987    -0.07140000
opls_145-282    C    0.65567996    0.87296993    0.24620988    -0.11020000
opls_142-283    C    0.61052992    0.76533998    0.24976005    0.08070000
opls_166-284    C    0.68249985    0.79172998    0.24447008    -0.07060000
opls_142-285    C    0.89930009    0.75664007    0.27225990    0.07810000
opls_145-286    C    0.62703989    0.84074010    0.24806996    -0.11330000
opls_700-287    C    0.64015005    0.79974010    0.24671985    0.04350000
opls_145-288    C    0.69091010    0.76093986    0.39839000    0.22110000
opls_145-289    C    0.68118012    0.72754004    0.42389997    -0.15460000
opls_145-290    C    0.64039000    0.72086008    0.43608990    -0.11180000
opls_700-291    C    0.60889997    0.74767014    0.42322001    0.10830000
opls_145-292    C    0.61937005    0.78094998    0.39771003    -0.10290000
opls_145-293    C    0.65977999    0.78740994    0.38562013    -0.15230000
opls_700-294    C    0.56701994    0.74059988    0.43239000    0.03570000
opls_145-295    C    0.53937005    0.74096993    0.39935993    -0.15090000
opls_700-296    C    0.49674010    0.74047990    0.40483001    0.03470000
opls_700-297    C    0.48081988    0.73825990    0.44547990    0.02460000
opls_700-298    C    0.50806014    0.73733998    0.47957011    -0.00200000
opls_700-299    C    0.55128997    0.73761000    0.47303007    0.02880000
opls_145-300    C    0.42276005    0.73691991    0.49252010    -0.11310000
opls_145-301    C    0.43844001    0.73530991    0.45303007    -0.10780000
opls_700-302    C    0.52816999    0.74464989    0.63059988    0.10580000
opls_145-303    C    0.52008990    0.72113992    0.66606014    -0.11330000
opls_145-304    C    0.54476005    0.72481988    0.70100000    -0.14560000
opls_145-305    C    0.57779012    0.75254004    0.70133998    0.22550000
opls_145-306    C    0.58510985    0.77689015    0.66679994    -0.14430000
opls_145-307    C    0.56018994    0.77366002    0.63211998    -0.11270000
opls_700-308    C    0.30189997    0.86489015    0.75545014    0.04740000
opls_166-309    C    0.28869991    0.82374992    0.75601013    -0.07140000
opls_145-310    C    0.34432004    0.87296993    0.75379012    -0.11020000
opls_142-311    C    0.38947008    0.76533998    0.75023995    0.08070000
opls_166-312    C    0.31749985    0.79172998    0.75552992    -0.07050000
opls_142-313    C    0.10069991    0.75664007    0.72774010    0.07810000
opls_145-314    C    0.37296011    0.84074010    0.75193004    -0.11330000
opls_700-315    C    0.35984995    0.79974010    0.75328015    0.04350000
opls_145-316    C    0.30908990    0.76093986    0.60161000    0.22110000
opls_145-317    C    0.31881988    0.72754004    0.57610003    -0.15460000
opls_145-318    C    0.35961000    0.72086008    0.56391010    -0.11190000
opls_700-319    C    0.39110003    0.74767014    0.57677999    0.10830000
opls_145-320    C    0.38062995    0.78094998    0.60228997    -0.10290000
opls_145-321    C    0.34022001    0.78740994    0.61437987    -0.15230000
opls_700-322    C    0.43298006    0.74059988    0.56761000    0.03570000
opls_145-323    C    0.46062995    0.74096993    0.60064007    -0.15090000
opls_700-324    C    0.50325990    0.74047990    0.59516999    0.03470000
opls_700-325    C    0.51918012    0.73825990    0.55452010    0.02460000
opls_700-326    C    0.49193986    0.73733998    0.52042989    -0.00200000
opls_700-327    C    0.44871003    0.73761000    0.52696993    0.02880000
opls_145-328    C    0.57723995    0.73691991    0.50747990    -0.11310000
opls_145-329    C    0.56155999    0.73530991    0.54696993    -0.10780000
opls_700-330    C    0.47183001    0.74464989    0.36940012    0.10580000
opls_145-331    C    0.47991010    0.72113992    0.33393986    -0.11330000
opls_145-332    C    0.45523995    0.72481988    0.29900000    -0.14550000
opls_145-333    C    0.42220988    0.75254004    0.29866002    0.22560000
opls_145-334    C    0.41489015    0.77689015    0.33320006    -0.14430000
opls_145-335    C    0.43981006    0.77366002    0.36788002    -0.11270000
opls_700-336    C    0.74454986    0.19810003    0.36489015    0.04740000
opls_166-337    C    0.74398987    0.21130009    0.32374992    -0.07140000
opls_145-338    C    0.74620988    0.15567996    0.37296993    -0.11020000
opls_142-339    C    0.74976005    0.11052992    0.26533998    0.08070000
opls_166-340    C    0.74447008    0.18250015    0.29172998    -0.07060000
opls_142-341    C    0.77225990    0.39930009    0.25664007    0.07810000
opls_145-342    C    0.74806996    0.12703989    0.34074010    -0.11330000
opls_700-343    C    0.74671985    0.14015005    0.29974010    0.04350000
opls_145-344    C    0.89839000    0.19091010    0.26093986    0.22110000
opls_145-345    C    0.92389997    0.18118012    0.22754004    -0.15460000
opls_145-346    C    0.93608990    0.14039000    0.22086008    -0.11190000
opls_700-347    C    0.92322001    0.10889997    0.24767014    0.10830000
opls_145-348    C    0.89771003    0.11937005    0.28094998    -0.10290000
opls_145-349    C    0.88562013    0.15977999    0.28740994    -0.15230000
opls_700-350    C    0.93239000    0.06701994    0.24059988    0.03570000
opls_145-351    C    0.89935993    0.03937005    0.24096993    -0.15090000
opls_700-352    C    0.90483001    0.99674010    0.24047990    0.03470000
opls_700-353    C    0.94547990    0.98081988    0.23825990    0.02460000
opls_700-354    C    0.97957011    0.00806014    0.23733998    -0.00190000
opls_700-355    C    0.97303007    0.05128997    0.23761000    0.02880000
opls_145-356    C    0.99252010    0.92276005    0.23691991    -0.11310000
opls_145-357    C    0.95303007    0.93844001    0.23530991    -0.10780000
opls_700-358    C    0.13059988    0.02816999    0.24464989    0.10580000
opls_145-359    C    0.16606014    0.02008990    0.22113992    -0.11330000
opls_145-360    C    0.20100000    0.04476005    0.22481988    -0.14560000
opls_145-361    C    0.20133998    0.07779012    0.25254004    0.22550000
opls_145-362    C    0.16679994    0.08510985    0.27689015    -0.14430000
opls_145-363    C    0.13211998    0.06018994    0.27366002    -0.11270000
opls_700-364    C    0.25545014    0.80189997    0.36489015    0.04740000
opls_166-365    C    0.25601013    0.78869991    0.32374992    -0.07140000
opls_145-366    C    0.25379012    0.84432004    0.37296993    -0.11020000
opls_142-367    C    0.25023995    0.88947008    0.26533998    0.08070000
opls_166-368    C    0.25552992    0.81749985    0.29172998    -0.07060000
opls_142-369    C    0.22774010    0.60069991    0.25664007    0.07810000
opls_145-370    C    0.25193004    0.87296011    0.34074010    -0.11330000
opls_700-371    C    0.25328015    0.85984995    0.29974010    0.04350000
opls_145-372    C    0.10161000    0.80908990    0.26093986    0.22110000
opls_145-373    C    0.07610003    0.81881988    0.22754004    -0.15460000
opls_145-374    C    0.06391010    0.85961000    0.22086008    -0.11190000
opls_700-375    C    0.07677999    0.89110003    0.24767014    0.10830000
opls_145-376    C    0.10228997    0.88062995    0.28094998    -0.10290000
opls_145-377    C    0.11437987    0.84022001    0.28740994    -0.15230000
opls_700-378    C    0.06761000    0.93298006    0.24059988    0.03570000
opls_145-379    C    0.10064007    0.96062995    0.24096993    -0.15090000
opls_700-380    C    0.09516999    0.00325990    0.24047990    0.03470000
opls_700-381    C    0.05452010    0.01918012    0.23825990    0.02460000
opls_700-382    C    0.02042989    0.99193986    0.23733998    -0.00200000
opls_700-383    C    0.02696993    0.94871003    0.23761000    0.02880000
opls_145-384    C    0.00747990    0.07723995    0.23691991    -0.11310000
opls_145-385    C    0.04696993    0.06155999    0.23530991    -0.10780000
opls_700-386    C    0.86940012    0.97183001    0.24464989    0.10580000
opls_145-387    C    0.83393986    0.97991010    0.22113992    -0.11330000
opls_145-388    C    0.79900000    0.95523995    0.22481988    -0.14550000
opls_145-389    C    0.79866002    0.92220988    0.25254004    0.22550000
opls_145-390    C    0.83320006    0.91489015    0.27689015    -0.14430000
opls_145-391    C    0.86788002    0.93981006    0.27366002    -0.11270000
opls_700-392    C    0.25545014    0.19810003    0.63510985    0.04740000
opls_166-393    C    0.25601013    0.21130009    0.67625008    -0.07140000
opls_145-394    C    0.25379012    0.15567996    0.62703007    -0.11010000
opls_142-395    C    0.25023995    0.11052992    0.73466002    0.08070000
opls_166-396    C    0.25552992    0.18250015    0.70827002    -0.07060000
opls_142-397    C    0.22774010    0.39930009    0.74335993    0.07810000
opls_145-398    C    0.25193004    0.12703989    0.65925990    -0.11330000
opls_700-399    C    0.25328015    0.14015005    0.70025990    0.04350000
opls_145-400    C    0.10161000    0.19091010    0.73906014    0.22110000
opls_145-401    C    0.07610003    0.18118012    0.77245996    -0.15450000
opls_145-402    C    0.06391010    0.14039000    0.77913992    -0.11190000
opls_700-403    C    0.07677999    0.10889997    0.75232986    0.10830000
opls_145-404    C    0.10228997    0.11937005    0.71905002    -0.10290000
opls_145-405    C    0.11437987    0.15977999    0.71259006    -0.15230000
opls_700-406    C    0.06761000    0.06701994    0.75940012    0.03570000
opls_145-407    C    0.10064007    0.03937005    0.75903007    -0.15090000
opls_700-408    C    0.09516999    0.99674010    0.75952010    0.03470000
opls_700-409    C    0.05452010    0.98081988    0.76174010    0.02460000
opls_700-410    C    0.02042989    0.00806014    0.76266002    -0.00200000
opls_700-411    C    0.02696993    0.05128997    0.76239000    0.02880000
opls_145-412    C    0.00747990    0.92276005    0.76308009    -0.11310000
opls_145-413    C    0.04696993    0.93844001    0.76469009    -0.10780000
opls_700-414    C    0.86940012    0.02816999    0.75535011    0.10580000
opls_145-415    C    0.83393986    0.02008990    0.77886008    -0.11330000
opls_145-416    C    0.79900000    0.04476005    0.77518012    -0.14560000
opls_145-417    C    0.79866002    0.07779012    0.74745996    0.22550000
opls_145-418    C    0.83320006    0.08510985    0.72310985    -0.14420000
opls_145-419    C    0.86788002    0.06018994    0.72633998    -0.11270000
opls_700-420    C    0.74454986    0.80189997    0.63510985    0.04750000
opls_166-421    C    0.74398987    0.78869991    0.67625008    -0.07140000
opls_145-422    C    0.74620988    0.84432004    0.62703007    -0.11020000
opls_142-423    C    0.74976005    0.88947008    0.73466002    0.08070000
opls_166-424    C    0.74447008    0.81749985    0.70827002    -0.07060000
opls_142-425    C    0.77225990    0.60069991    0.74335993    0.07810000
opls_145-426    C    0.74806996    0.87296011    0.65925990    -0.11330000
opls_700-427    C    0.74671985    0.85984995    0.70025990    0.04350000
opls_145-428    C    0.89839000    0.80908990    0.73906014    0.22120000
opls_145-429    C    0.92389997    0.81881988    0.77245996    -0.15460000
opls_145-430    C    0.93608990    0.85961000    0.77913992    -0.11190000
opls_700-431    C    0.92322001    0.89110003    0.75232986    0.10830000
opls_145-432    C    0.89771003    0.88062995    0.71905002    -0.10290000
opls_145-433    C    0.88562013    0.84022001    0.71259006    -0.15230000
opls_700-434    C    0.93239000    0.93298006    0.75940012    0.03570000
opls_145-435    C    0.89935993    0.96062995    0.75903007    -0.15090000
opls_700-436    C    0.90483001    0.00325990    0.75952010    0.03470000
opls_700-437    C    0.94547990    0.01918012    0.76174010    0.02460000
opls_700-438    C    0.97957011    0.99193986    0.76266002    -0.00200000
opls_700-439    C    0.97303007    0.94871003    0.76239000    0.02880000
opls_145-440    C    0.99252010    0.07723995    0.76308009    -0.11310000
opls_145-441    C    0.95303007    0.06155999    0.76469009    -0.10780000
opls_700-442    C    0.13059988    0.97183001    0.75535011    0.10580000
opls_145-443    C    0.16606014    0.97991010    0.77886008    -0.11330000
opls_145-444    C    0.20100000    0.95523995    0.77518012    -0.14560000
opls_145-445    C    0.20133998    0.92220988    0.74745996    0.22550000
opls_145-446    C    0.16679994    0.91489015    0.72310985    -0.14430000
opls_145-447    C    0.13211998    0.93981006    0.72633998    -0.11260000
opls_700-448    C    0.36489015    0.74454986    0.19810003    0.04740000
opls_166-449    C    0.32374992    0.74398987    0.21130009    -0.07140000
opls_145-450    C    0.37296993    0.74620988    0.15567996    -0.11020000
opls_142-451    C    0.26533998    0.74976005    0.11052992    0.08070000
opls_166-452    C    0.29172998    0.74447008    0.18250015    -0.07060000
opls_142-453    C    0.25664007    0.77225990    0.39930009    0.07810000
opls_145-454    C    0.34074010    0.74806996    0.12703989    -0.11330000
opls_700-455    C    0.29974010    0.74671985    0.14015005    0.04350000
opls_145-456    C    0.26093986    0.89839000    0.19091010    0.22110000
opls_145-457    C    0.22754004    0.92389997    0.18118012    -0.15460000
opls_145-458    C    0.22086008    0.93608990    0.14039000    -0.11180000
opls_700-459    C    0.24767014    0.92322001    0.10889997    0.10840000
opls_145-460    C    0.28094998    0.89771003    0.11937005    -0.10290000
opls_145-461    C    0.28740994    0.88562013    0.15977999    -0.15230000
opls_700-462    C    0.24059988    0.93239000    0.06701994    0.03570000
opls_145-463    C    0.24096993    0.89935993    0.03937005    -0.15090000
opls_700-464    C    0.24047990    0.90483001    0.99674010    0.03470000
opls_700-465    C    0.23825990    0.94547990    0.98081988    0.02460000
opls_700-466    C    0.23733998    0.97957011    0.00806014    -0.00200000
opls_700-467    C    0.23761000    0.97303007    0.05128997    0.02880000
opls_145-468    C    0.23691991    0.99252010    0.92276005    -0.11310000
opls_145-469    C    0.23530991    0.95303007    0.93844001    -0.10780000
opls_700-470    C    0.24464989    0.13059988    0.02816999    0.10580000
opls_145-471    C    0.22113992    0.16606014    0.02008990    -0.11320000
opls_145-472    C    0.22481988    0.20100000    0.04476005    -0.14550000
opls_145-473    C    0.25254004    0.20133998    0.07779012    0.22560000
opls_145-474    C    0.27689015    0.16679994    0.08510985    -0.14430000
opls_145-475    C    0.27366002    0.13211998    0.06018994    -0.11270000
opls_700-476    C    0.36489015    0.25545014    0.80189997    0.04740000
opls_166-477    C    0.32374992    0.25601013    0.78869991    -0.07140000
opls_145-478    C    0.37296993    0.25379012    0.84432004    -0.11010000
opls_142-479    C    0.26533998    0.25023995    0.88947008    0.08070000
opls_166-480    C    0.29172998    0.25552992    0.81749985    -0.07060000
opls_142-481    C    0.25664007    0.22774010    0.60069991    0.07810000
opls_145-482    C    0.34074010    0.25193004    0.87296011    -0.11330000
opls_700-483    C    0.29974010    0.25328015    0.85984995    0.04350000
opls_145-484    C    0.26093986    0.10161000    0.80908990    0.22110000
opls_145-485    C    0.22754004    0.07610003    0.81881988    -0.15460000
opls_145-486    C    0.22086008    0.06391010    0.85961000    -0.11190000
opls_700-487    C    0.24767014    0.07677999    0.89110003    0.10830000
opls_145-488    C    0.28094998    0.10228997    0.88062995    -0.10290000
opls_145-489    C    0.28740994    0.11437987    0.84022001    -0.15230000
opls_700-490    C    0.24059988    0.06761000    0.93298006    0.03570000
opls_145-491    C    0.24096993    0.10064007    0.96062995    -0.15090000
opls_700-492    C    0.24047990    0.09516999    0.00325990    0.03470000
opls_700-493    C    0.23825990    0.05452010    0.01918012    0.02460000
opls_700-494    C    0.23733998    0.02042989    0.99193986    -0.00200000
opls_700-495    C    0.23761000    0.02696993    0.94871003    0.02880000
opls_145-496    C    0.23691991    0.00747990    0.07723995    -0.11310000
opls_145-497    C    0.23530991    0.04696993    0.06155999    -0.10780000
opls_700-498    C    0.24464989    0.86940012    0.97183001    0.10580000
opls_145-499    C    0.22113992    0.83393986    0.97991010    -0.11330000
opls_145-500    C    0.22481988    0.79900000    0.95523995    -0.14560000
opls_145-501    C    0.25254004    0.79866002    0.92220988    0.22560000
opls_145-502    C    0.27689015    0.83320006    0.91489015    -0.14430000
opls_145-503    C    0.27366002    0.86788002    0.93981006    -0.11260000
opls_700-504    C    0.63510985    0.25545014    0.19810003    0.04750000
opls_166-505    C    0.67625008    0.25601013    0.21130009    -0.07140000
opls_145-506    C    0.62703007    0.25379012    0.15567996    -0.11020000
opls_142-507    C    0.73466002    0.25023995    0.11052992    0.08070000
opls_166-508    C    0.70827002    0.25552992    0.18250015    -0.07060000
opls_142-509    C    0.74335993    0.22774010    0.39930009    0.07810000
opls_145-510    C    0.65925990    0.25193004    0.12703989    -0.11330000
opls_700-511    C    0.70025990    0.25328015    0.14015005    0.04350000
opls_145-512    C    0.73906014    0.10161000    0.19091010    0.22110000
opls_145-513    C    0.77245996    0.07610003    0.18118012    -0.15460000
opls_145-514    C    0.77913992    0.06391010    0.14039000    -0.11190000
opls_700-515    C    0.75232986    0.07677999    0.10889997    0.10830000
opls_145-516    C    0.71905002    0.10228997    0.11937005    -0.10290000
opls_145-517    C    0.71259006    0.11437987    0.15977999    -0.15230000
opls_700-518    C    0.75940012    0.06761000    0.06701994    0.03570000
opls_145-519    C    0.75903007    0.10064007    0.03937005    -0.15090000
opls_700-520    C    0.75952010    0.09516999    0.99674010    0.03470000
opls_700-521    C    0.76174010    0.05452010    0.98081988    0.02460000
opls_700-522    C    0.76266002    0.02042989    0.00806014    -0.00200000
opls_700-523    C    0.76239000    0.02696993    0.05128997    0.02880000
opls_145-524    C    0.76308009    0.00747990    0.92276005    -0.11310000
opls_145-525    C    0.76469009    0.04696993    0.93844001    -0.10780000
opls_700-526    C    0.75535011    0.86940012    0.02816999    0.10580000
opls_145-527    C    0.77886008    0.83393986    0.02008990    -0.11330000
opls_145-528    C    0.77518012    0.79900000    0.04476005    -0.14560000
opls_145-529    C    0.74745996    0.79866002    0.07779012    0.22550000
opls_145-530    C    0.72310985    0.83320006    0.08510985    -0.14430000
opls_145-531    C    0.72633998    0.86788002    0.06018994    -0.11270000
opls_700-532    C    0.63510985    0.74454986    0.80189997    0.04740000
opls_166-533    C    0.67625008    0.74398987    0.78869991    -0.07140000
opls_145-534    C    0.62703007    0.74620988    0.84432004    -0.11020000
opls_142-535    C    0.73466002    0.74976005    0.88947008    0.08070000
opls_166-536    C    0.70827002    0.74447008    0.81749985    -0.07060000
opls_142-537    C    0.74335993    0.77225990    0.60069991    0.07810000
opls_145-538    C    0.65925990    0.74806996    0.87296011    -0.11330000
opls_700-539    C    0.70025990    0.74671985    0.85984995    0.04350000
opls_145-540    C    0.73906014    0.89839000    0.80908990    0.22110000
opls_145-541    C    0.77245996    0.92389997    0.81881988    -0.15460000
opls_145-542    C    0.77913992    0.93608990    0.85961000    -0.11190000
opls_700-543    C    0.75232986    0.92322001    0.89110003    0.10830000
opls_145-544    C    0.71905002    0.89771003    0.88062995    -0.10290000
opls_145-545    C    0.71259006    0.88562013    0.84022001    -0.15230000
opls_700-546    C    0.75940012    0.93239000    0.93298006    0.03570000
opls_145-547    C    0.75903007    0.89935993    0.96062995    -0.15090000
opls_700-548    C    0.75952010    0.90483001    0.00325990    0.03470000
opls_700-549    C    0.76174010    0.94547990    0.01918012    0.02460000
opls_700-550    C    0.76266002    0.97957011    0.99193986    -0.00200000
opls_700-551    C    0.76239000    0.97303007    0.94871003    0.02880000
opls_145-552    C    0.76308009    0.99252010    0.07723995    -0.11310000
opls_145-553    C    0.76469009    0.95303007    0.06155999    -0.10780000
opls_700-554    C    0.75535011    0.13059988    0.97183001    0.10580000
opls_145-555    C    0.77886008    0.16606014    0.97991010    -0.11330000
opls_145-556    C    0.77518012    0.20100000    0.95523995    -0.14560000
opls_145-557    C    0.74745996    0.20133998    0.92220988    0.22550000
opls_145-558    C    0.72310985    0.16679994    0.91489015    -0.14430000
opls_145-559    C    0.72633998    0.13211998    0.93981006    -0.11270000
opls_700-560    C    0.19810003    0.63510985    0.25545014    0.04740000
opls_166-561    C    0.21130009    0.67625008    0.25601013    -0.07140000
opls_145-562    C    0.15567996    0.62703007    0.25379012    -0.11020000
opls_142-563    C    0.11052992    0.73466002    0.25023995    0.08070000
opls_166-564    C    0.18250015    0.70827002    0.25552992    -0.07060000
opls_142-565    C    0.39930009    0.74335993    0.22774010    0.07810000
opls_145-566    C    0.12703989    0.65925990    0.25193004    -0.11330000
opls_700-567    C    0.14015005    0.70025990    0.25328015    0.04350000
opls_145-568    C    0.19091010    0.73906014    0.10161000    0.22110000
opls_145-569    C    0.18118012    0.77245996    0.07610003    -0.15450000
opls_145-570    C    0.14039000    0.77913992    0.06391010    -0.11190000
opls_700-571    C    0.10889997    0.75232986    0.07677999    0.10830000
opls_145-572    C    0.11937005    0.71905002    0.10228997    -0.10290000
opls_145-573    C    0.15977999    0.71259006    0.11437987    -0.15230000
opls_700-574    C    0.06701994    0.75940012    0.06761000    0.03570000
opls_145-575    C    0.03937005    0.75903007    0.10064007    -0.15080000
opls_700-576    C    0.99674010    0.75952010    0.09516999    0.03470000
opls_700-577    C    0.98081988    0.76174010    0.05452010    0.02460000
opls_700-578    C    0.00806014    0.76266002    0.02042989    -0.00200000
opls_700-579    C    0.05128997    0.76239000    0.02696993    0.02880000
opls_145-580    C    0.92276005    0.76308009    0.00747990    -0.11310000
opls_145-581    C    0.93844001    0.76469009    0.04696993    -0.10780000
opls_700-582    C    0.02816999    0.75535011    0.86940012    0.10580000
opls_145-583    C    0.02008990    0.77886008    0.83393986    -0.11320000
opls_145-584    C    0.04476005    0.77518012    0.79900000    -0.14560000
opls_145-585    C    0.07779012    0.74745996    0.79866002    0.22560000
opls_145-586    C    0.08510985    0.72310985    0.83320006    -0.14430000
opls_145-587    C    0.06018994    0.72633998    0.86788002    -0.11270000
opls_700-588    C    0.80189997    0.63510985    0.74454986    0.04740000
opls_166-589    C    0.78869991    0.67625008    0.74398987    -0.07140000
opls_145-590    C    0.84432004    0.62703007    0.74620988    -0.11020000
opls_142-591    C    0.88947008    0.73466002    0.74976005    0.08070000
opls_166-592    C    0.81749985    0.70827002    0.74447008    -0.07060000
opls_142-593    C    0.60069991    0.74335993    0.77225990    0.07810000
opls_145-594    C    0.87296011    0.65925990    0.74806996    -0.11330000
opls_700-595    C    0.85984995    0.70025990    0.74671985    0.04350000
opls_145-596    C    0.80908990    0.73906014    0.89839000    0.22110000
opls_145-597    C    0.81881988    0.77245996    0.92389997    -0.15460000
opls_145-598    C    0.85961000    0.77913992    0.93608990    -0.11190000
opls_700-599    C    0.89110003    0.75232986    0.92322001    0.10830000
opls_145-600    C    0.88062995    0.71905002    0.89771003    -0.10290000
opls_145-601    C    0.84022001    0.71259006    0.88562013    -0.15230000
opls_700-602    C    0.93298006    0.75940012    0.93239000    0.03570000
opls_145-603    C    0.96062995    0.75903007    0.89935993    -0.15090000
opls_700-604    C    0.00325990    0.75952010    0.90483001    0.03470000
opls_700-605    C    0.01918012    0.76174010    0.94547990    0.02460000
opls_700-606    C    0.99193986    0.76266002    0.97957011    -0.00200000
opls_700-607    C    0.94871003    0.76239000    0.97303007    0.02880000
opls_145-608    C    0.07723995    0.76308009    0.99252010    -0.11310000
opls_145-609    C    0.06155999    0.76469009    0.95303007    -0.10770000
opls_700-610    C    0.97183001    0.75535011    0.13059988    0.10580000
opls_145-611    C    0.97991010    0.77886008    0.16606014    -0.11330000
opls_145-612    C    0.95523995    0.77518012    0.20100000    -0.14560000
opls_145-613    C    0.92220988    0.74745996    0.20133998    0.22550000
opls_145-614    C    0.91489015    0.72310985    0.16679994    -0.14430000
opls_145-615    C    0.93981006    0.72633998    0.13211998    -0.11270000
opls_700-616    C    0.19810003    0.36489015    0.74454986    0.04740000
opls_166-617    C    0.21130009    0.32374992    0.74398987    -0.07140000
opls_145-618    C    0.15567996    0.37296993    0.74620988    -0.11020000
opls_142-619    C    0.11052992    0.26533998    0.74976005    0.08070000
opls_166-620    C    0.18250015    0.29172998    0.74447008    -0.07060000
opls_142-621    C    0.39930009    0.25664007    0.77225990    0.07810000
opls_145-622    C    0.12703989    0.34074010    0.74806996    -0.11330000
opls_700-623    C    0.14015005    0.29974010    0.74671985    0.04350000
opls_145-624    C    0.19091010    0.26093986    0.89839000    0.22110000
opls_145-625    C    0.18118012    0.22754004    0.92389997    -0.15460000
opls_145-626    C    0.14039000    0.22086008    0.93608990    -0.11190000
opls_700-627    C    0.10889997    0.24767014    0.92322001    0.10840000
opls_145-628    C    0.11937005    0.28094998    0.89771003    -0.10290000
opls_145-629    C    0.15977999    0.28740994    0.88562013    -0.15230000
opls_700-630    C    0.06701994    0.24059988    0.93239000    0.03570000
opls_145-631    C    0.03937005    0.24096993    0.89935993    -0.15090000
opls_700-632    C    0.99674010    0.24047990    0.90483001    0.03470000
opls_700-633    C    0.98081988    0.23825990    0.94547990    0.02460000
opls_700-634    C    0.00806014    0.23733998    0.97957011    -0.00200000
opls_700-635    C    0.05128997    0.23761000    0.97303007    0.02880000
opls_145-636    C    0.92276005    0.23691991    0.99252010    -0.11310000
opls_145-637    C    0.93844001    0.23530991    0.95303007    -0.10780000
opls_700-638    C    0.02816999    0.24464989    0.13059988    0.10580000
opls_145-639    C    0.02008990    0.22113992    0.16606014    -0.11330000
opls_145-640    C    0.04476005    0.22481988    0.20100000    -0.14560000
opls_145-641    C    0.07779012    0.25254004    0.20133998    0.22550000
opls_145-642    C    0.08510985    0.27689015    0.16679994    -0.14430000
opls_145-643    C    0.06018994    0.27366002    0.13211998    -0.11270000
opls_700-644    C    0.80189997    0.36489015    0.25545014    0.04750000
opls_166-645    C    0.78869991    0.32374992    0.25601013    -0.07140000
opls_145-646    C    0.84432004    0.37296993    0.25379012    -0.11020000
opls_142-647    C    0.88947008    0.26533998    0.25023995    0.08070000
opls_166-648    C    0.81749985    0.29172998    0.25552992    -0.07060000
opls_142-649    C    0.60069991    0.25664007    0.22774010    0.07810000
opls_145-650    C    0.87296011    0.34074010    0.25193004    -0.11330000
opls_700-651    C    0.85984995    0.29974010    0.25328015    0.04350000
opls_145-652    C    0.80908990    0.26093986    0.10161000    0.22110000
opls_145-653    C    0.81881988    0.22754004    0.07610003    -0.15460000
opls_145-654    C    0.85961000    0.22086008    0.06391010    -0.11190000
opls_700-655    C    0.89110003    0.24767014    0.07677999    0.10840000
opls_145-656    C    0.88062995    0.28094998    0.10228997    -0.10280000
opls_145-657    C    0.84022001    0.28740994    0.11437987    -0.15230000
opls_700-658    C    0.93298006    0.24059988    0.06761000    0.03570000
opls_145-659    C    0.96062995    0.24096993    0.10064007    -0.15090000
opls_700-660    C    0.00325990    0.24047990    0.09516999    0.03470000
opls_700-661    C    0.01918012    0.23825990    0.05452010    0.02460000
opls_700-662    C    0.99193986    0.23733998    0.02042989    -0.00200000
opls_700-663    C    0.94871003    0.23761000    0.02696993    0.02880000
opls_145-664    C    0.07723995    0.23691991    0.00747990    -0.11310000
opls_145-665    C    0.06155999    0.23530991    0.04696993    -0.10780000
opls_700-666    C    0.97183001    0.24464989    0.86940012    0.10580000
opls_145-667    C    0.97991010    0.22113992    0.83393986    -0.11330000
opls_145-668    C    0.95523995    0.22481988    0.79900000    -0.14560000
opls_145-669    C    0.92220988    0.25254004    0.79866002    0.22550000
opls_145-670    C    0.91489015    0.27689015    0.83320006    -0.14410000
opls_145-671    C    0.93981006    0.27366002    0.86788002    -0.11270000
opls_750-672    N    0.37896011    0.73001013    0.76532986    -0.30300000
opls_750-673    N    0.10674010    0.74572998    0.76559006    -0.30310000
opls_750-674    N    0.62103989    0.26998987    0.76532986    -0.30290000
opls_750-675    N    0.89325990    0.25427002    0.76559006    -0.30300000
opls_750-676    N    0.62103989    0.73001013    0.23467014    -0.30300000
opls_750-677    N    0.89325990    0.74572998    0.23440994    -0.30300000
opls_750-678    N    0.37896011    0.26998987    0.23467014    -0.30280000
opls_750-679    N    0.10674010    0.25427002    0.23440994    -0.30300000
opls_750-680    N    0.76532986    0.37896011    0.73001013    -0.30300000
opls_750-681    N    0.76559006    0.10674010    0.74572998    -0.30310000
opls_750-682    N    0.76532986    0.62103989    0.26998987    -0.30300000
opls_750-683    N    0.76559006    0.89325990    0.25427002    -0.30300000
opls_750-684    N    0.23467014    0.62103989    0.73001013    -0.30300000
opls_750-685    N    0.23440994    0.89325990    0.74572998    -0.30310000
opls_750-686    N    0.23467014    0.37896011    0.26998987    -0.30300000
opls_750-687    N    0.23440994    0.10674010    0.25427002    -0.30310000
opls_750-688    N    0.73001013    0.23467014    0.62103989    -0.30290000
opls_750-689    N    0.74572998    0.23440994    0.89325990    -0.30310000
opls_750-690    N    0.26998987    0.23467014    0.37896011    -0.30300000
opls_750-691    N    0.25427002    0.23440994    0.10674010    -0.30300000
opls_750-692    N    0.73001013    0.76532986    0.37896011    -0.30300000
opls_750-693    N    0.74572998    0.76559006    0.10674010    -0.30300000
opls_750-694    N    0.26998987    0.76532986    0.62103989    -0.30300000
opls_750-695    N    0.25427002    0.76559006    0.89325990    -0.30300000
opls_750-696    N    0.87896011    0.23001013    0.26532986    -0.30300000
opls_750-697    N    0.60674010    0.24572998    0.26559006    -0.30310000
opls_750-698    N    0.12103989    0.76998987    0.26532986    -0.30300000
opls_750-699    N    0.39325990    0.75427002    0.26559006    -0.30310000
opls_750-700    N    0.12103989    0.23001013    0.73467014    -0.30300000
opls_750-701    N    0.39325990    0.24572998    0.73440994    -0.30310000
opls_750-702    N    0.87896011    0.76998987    0.73467014    -0.30300000
opls_750-703    N    0.60674010    0.75427002    0.73440994    -0.30310000
opls_750-704    N    0.26532986    0.87896011    0.23001013    -0.30300000
opls_750-705    N    0.26559006    0.60674010    0.24572998    -0.30310000
opls_750-706    N    0.26532986    0.12103989    0.76998987    -0.30300000
opls_750-707    N    0.26559006    0.39325990    0.75427002    -0.30310000
opls_750-708    N    0.73467014    0.12103989    0.23001013    -0.30300000
opls_750-709    N    0.73440994    0.39325990    0.24572998    -0.30310000
opls_750-710    N    0.73467014    0.87896011    0.76998987    -0.30300000
opls_750-711    N    0.73440994    0.60674010    0.75427002    -0.30310000
opls_750-712    N    0.23001013    0.73467014    0.12103989    -0.30290000
opls_750-713    N    0.24572998    0.73440994    0.39325990    -0.30310000
opls_750-714    N    0.76998987    0.73467014    0.87896011    -0.30300000
opls_750-715    N    0.75427002    0.73440994    0.60674010    -0.30310000
opls_750-716    N    0.23001013    0.26532986    0.87896011    -0.30300000
opls_750-717    N    0.24572998    0.26559006    0.60674010    -0.30310000
opls_750-718    N    0.76998987    0.26532986    0.12103989    -0.30300000
opls_750-719    N    0.75427002    0.26559006    0.39325990    -0.30310000
opls_167-720    O    0.24310985    0.74923013    0.81374010    -0.46270000
opls_167-721    O    0.30367014    0.75525008    0.75640012    -0.46480000
opls_167-722    O    0.75689015    0.25076987    0.81374010    -0.46260000
opls_167-723    O    0.69632986    0.24474992    0.75640012    -0.46490000
opls_167-724    O    0.75689015    0.74923013    0.18625990    -0.46260000
opls_167-725    O    0.69632986    0.75525008    0.24359988    -0.46490000
opls_167-726    O    0.24310985    0.25076987    0.18625990    -0.46270000
opls_167-727    O    0.30367014    0.24474992    0.24359988    -0.46490000
opls_167-728    O    0.81374010    0.24310985    0.74923013    -0.46270000
opls_167-729    O    0.75640012    0.30367014    0.75525008    -0.46480000
opls_167-730    O    0.81374010    0.75689015    0.25076987    -0.46270000
opls_167-731    O    0.75640012    0.69632986    0.24474992    -0.46480000
opls_167-732    O    0.18625990    0.75689015    0.74923013    -0.46270000
opls_167-733    O    0.24359988    0.69632986    0.75525008    -0.46490000
opls_167-734    O    0.18625990    0.24310985    0.25076987    -0.46270000
opls_167-735    O    0.24359988    0.30367014    0.24474992    -0.46490000
opls_167-736    O    0.74923013    0.18625990    0.75689015    -0.46270000
opls_167-737    O    0.75525008    0.24359988    0.69632986    -0.46460000
opls_167-738    O    0.25076987    0.18625990    0.24310985    -0.46240000
opls_167-739    O    0.24474992    0.24359988    0.30367014    -0.46470000
opls_167-740    O    0.74923013    0.81374010    0.24310985    -0.46250000
opls_167-741    O    0.75525008    0.75640012    0.30367014    -0.46490000
opls_167-742    O    0.25076987    0.81374010    0.75689015    -0.46260000
opls_167-743    O    0.24474992    0.75640012    0.69632986    -0.46490000
opls_167-744    O    0.74310985    0.24923013    0.31374010    -0.46260000
opls_167-745    O    0.80367014    0.25525008    0.25640012    -0.46470000
opls_167-746    O    0.25689015    0.75076987    0.31374010    -0.46270000
opls_167-747    O    0.19632986    0.74474992    0.25640012    -0.46490000
opls_167-748    O    0.25689015    0.24923013    0.68625990    -0.46270000
opls_167-749    O    0.19632986    0.25525008    0.74359988    -0.46480000
opls_167-750    O    0.74310985    0.75076987    0.68625990    -0.46250000
opls_167-751    O    0.80367014    0.74474992    0.74359988    -0.46490000
opls_167-752    O    0.31374010    0.74310985    0.24923013    -0.46260000
opls_167-753    O    0.25640012    0.80367014    0.25525008    -0.46490000
opls_167-754    O    0.31374010    0.25689015    0.75076987    -0.46230000
opls_167-755    O    0.25640012    0.19632986    0.74474992    -0.46490000
opls_167-756    O    0.68625990    0.25689015    0.24923013    -0.46270000
opls_167-757    O    0.74359988    0.19632986    0.25525008    -0.46490000
opls_167-758    O    0.68625990    0.74310985    0.75076987    -0.46270000
opls_167-759    O    0.74359988    0.80367014    0.74474992    -0.46490000
opls_167-760    O    0.24923013    0.68625990    0.25689015    -0.46270000
opls_167-761    O    0.25525008    0.74359988    0.19632986    -0.46490000
opls_167-762    O    0.75076987    0.68625990    0.74310985    -0.46260000
opls_167-763    O    0.74474992    0.74359988    0.80367014    -0.46480000
opls_167-764    O    0.24923013    0.31374010    0.74310985    -0.46260000
opls_167-765    O    0.25525008    0.25640012    0.80367014    -0.46490000
opls_167-766    O    0.75076987    0.31374010    0.25689015    -0.46240000
opls_167-767    O    0.74474992    0.25640012    0.19632986    -0.46490000
opls_146-768    H    0.24683001    0.64469991    0.90433998    0.13070000
opls_144-769    H    0.26571985    0.58166002    0.76935011    0.12170000
opls_144-770    H    0.28269991    0.92947990    0.76581988    0.12760000
opls_146-771    H    0.25016999    0.59462995    0.84781988    0.12910000
opls_146-772    H    0.43245996    0.70445996    0.70550997    0.13880000
opls_146-773    H    0.45386008    0.63320006    0.69369009    0.13080000
opls_146-774    H    0.38696993    0.59608009    0.80213010    0.13230000
opls_146-775    H    0.36500000    0.66674992    0.81254004    0.13150000
opls_146-776    H    0.36844001    0.55154986    0.74352992    0.12800000
opls_146-777    H    0.49513992    0.38981006    0.73793004    0.13270000
opls_146-778    H    0.42847008    0.41645014    0.73191991    0.13750000
opls_146-779    H    0.66603989    0.49588002    0.69840012    0.13470000
opls_146-780    H    0.72684995    0.53889015    0.70484014    0.13420000
opls_146-781    H    0.66672998    0.61042989    0.79842989    0.13070000
opls_146-782    H    0.60649003    0.56593004    0.79403989    0.13060000
opls_146-783    H    0.75316999    0.35530009    0.90433998    0.13060000
opls_144-784    H    0.73428015    0.41833998    0.76935011    0.12170000
opls_144-785    H    0.71730009    0.07052010    0.76581988    0.12770000
opls_146-786    H    0.74983001    0.40537005    0.84781988    0.12910000
opls_146-787    H    0.56754004    0.29554004    0.70550997    0.13870000
opls_146-788    H    0.54613992    0.36679994    0.69369009    0.13080000
opls_146-789    H    0.61303007    0.40391991    0.80213010    0.13230000
opls_146-790    H    0.63500000    0.33325008    0.81254004    0.13150000
opls_146-791    H    0.63155999    0.44845014    0.74352992    0.12800000
opls_146-792    H    0.50486008    0.61018994    0.73793004    0.13270000
opls_146-793    H    0.57152992    0.58354986    0.73191991    0.13750000
opls_146-794    H    0.33396011    0.50411998    0.69840012    0.13480000
opls_146-795    H    0.27315005    0.46110985    0.70484014    0.13410000
opls_146-796    H    0.33327002    0.38957011    0.79842989    0.13060000
opls_146-797    H    0.39350997    0.43406996    0.79403989    0.13060000
opls_146-798    H    0.75316999    0.64469991    0.09566002    0.13070000
opls_144-799    H    0.73428015    0.58166002    0.23064989    0.12170000
opls_144-800    H    0.71730009    0.92947990    0.23418012    0.12760000
opls_146-801    H    0.74983001    0.59462995    0.15218012    0.12910000
opls_146-802    H    0.56754004    0.70445996    0.29449003    0.13870000
opls_146-803    H    0.54613992    0.63320006    0.30630991    0.13080000
opls_146-804    H    0.61303007    0.59608009    0.19786990    0.13230000
opls_146-805    H    0.63500000    0.66674992    0.18745996    0.13150000
opls_146-806    H    0.63155999    0.55154986    0.25647008    0.12800000
opls_146-807    H    0.50486008    0.38981006    0.26206996    0.13270000
opls_146-808    H    0.57152992    0.41645014    0.26808009    0.13750000
opls_146-809    H    0.33396011    0.49588002    0.30159988    0.13470000
opls_146-810    H    0.27315005    0.53889015    0.29515986    0.13410000
opls_146-811    H    0.33327002    0.61042989    0.20157011    0.13080000
opls_146-812    H    0.39350997    0.56593004    0.20596011    0.13060000
opls_146-813    H    0.24683001    0.35530009    0.09566002    0.13060000
opls_144-814    H    0.26571985    0.41833998    0.23064989    0.12170000
opls_144-815    H    0.28269991    0.07052010    0.23418012    0.12760000
opls_146-816    H    0.25016999    0.40537005    0.15218012    0.12910000
opls_146-817    H    0.43245996    0.29554004    0.29449003    0.13870000
opls_146-818    H    0.45386008    0.36679994    0.30630991    0.13090000
opls_146-819    H    0.38696993    0.40391991    0.19786990    0.13230000
opls_146-820    H    0.36500000    0.33325008    0.18745996    0.13160000
opls_146-821    H    0.36844001    0.44845014    0.25647008    0.12800000
opls_146-822    H    0.49513992    0.61018994    0.26206996    0.13270000
opls_146-823    H    0.42847008    0.58354986    0.26808009    0.13750000
opls_146-824    H    0.66603989    0.50411998    0.30159988    0.13470000
opls_146-825    H    0.72684995    0.46110985    0.29515986    0.13420000
opls_146-826    H    0.66672998    0.38957011    0.20157011    0.13060000
opls_146-827    H    0.60649003    0.43406996    0.20596011    0.13060000
opls_146-828    H    0.90433998    0.24683001    0.64469991    0.13060000
opls_144-829    H    0.76935011    0.26571985    0.58166002    0.12170000
opls_144-830    H    0.76581988    0.28269991    0.92947990    0.12760000
opls_146-831    H    0.84781988    0.25016999    0.59462995    0.12910000
opls_146-832    H    0.70550997    0.43245996    0.70445996    0.13870000
opls_146-833    H    0.69369009    0.45386008    0.63320006    0.13080000
opls_146-834    H    0.80213010    0.38696993    0.59608009    0.13230000
opls_146-835    H    0.81254004    0.36500000    0.66674992    0.13150000
opls_146-836    H    0.74352992    0.36844001    0.55154986    0.12800000
opls_146-837    H    0.73793004    0.49513992    0.38981006    0.13270000
opls_146-838    H    0.73191991    0.42847008    0.41645014    0.13760000
opls_146-839    H    0.69840012    0.66603989    0.49588002    0.13480000
opls_146-840    H    0.70484014    0.72684995    0.53889015    0.13420000
opls_146-841    H    0.79842989    0.66672998    0.61042989    0.13060000
opls_146-842    H    0.79403989    0.60649003    0.56593004    0.13060000
opls_146-843    H    0.90433998    0.75316999    0.35530009    0.13060000
opls_144-844    H    0.76935011    0.73428015    0.41833998    0.12170000
opls_144-845    H    0.76581988    0.71730009    0.07052010    0.12760000
opls_146-846    H    0.84781988    0.74983001    0.40537005    0.12910000
opls_146-847    H    0.70550997    0.56754004    0.29554004    0.13870000
opls_146-848    H    0.69369009    0.54613992    0.36679994    0.13080000
opls_146-849    H    0.80213010    0.61303007    0.40391991    0.13230000
opls_146-850    H    0.81254004    0.63500000    0.33325008    0.13150000
opls_146-851    H    0.74352992    0.63155999    0.44845014    0.12810000
opls_146-852    H    0.73793004    0.50486008    0.61018994    0.13270000
opls_146-853    H    0.73191991    0.57152992    0.58354986    0.13750000
opls_146-854    H    0.69840012    0.33396011    0.50411998    0.13470000
opls_146-855    H    0.70484014    0.27315005    0.46110985    0.13410000
opls_146-856    H    0.79842989    0.33327002    0.38957011    0.13060000
opls_146-857    H    0.79403989    0.39350997    0.43406996    0.13060000
opls_146-858    H    0.09566002    0.75316999    0.64469991    0.13060000
opls_144-859    H    0.23064989    0.73428015    0.58166002    0.12170000
opls_144-860    H    0.23418012    0.71730009    0.92947990    0.12760000
opls_146-861    H    0.15218012    0.74983001    0.59462995    0.12910000
opls_146-862    H    0.29449003    0.56754004    0.70445996    0.13870000
opls_146-863    H    0.30630991    0.54613992    0.63320006    0.13090000
opls_146-864    H    0.19786990    0.61303007    0.59608009    0.13230000
opls_146-865    H    0.18745996    0.63500000    0.66674992    0.13150000
opls_146-866    H    0.25647008    0.63155999    0.55154986    0.12800000
opls_146-867    H    0.26206996    0.50486008    0.38981006    0.13270000
opls_146-868    H    0.26808009    0.57152992    0.41645014    0.13760000
opls_146-869    H    0.30159988    0.33396011    0.49588002    0.13470000
opls_146-870    H    0.29515986    0.27315005    0.53889015    0.13410000
opls_146-871    H    0.20157011    0.33327002    0.61042989    0.13060000
opls_146-872    H    0.20596011    0.39350997    0.56593004    0.13060000
opls_146-873    H    0.09566002    0.24683001    0.35530009    0.13060000
opls_144-874    H    0.23064989    0.26571985    0.41833998    0.12170000
opls_144-875    H    0.23418012    0.28269991    0.07052010    0.12760000
opls_146-876    H    0.15218012    0.25016999    0.40537005    0.12910000
opls_146-877    H    0.29449003    0.43245996    0.29554004    0.13870000
opls_146-878    H    0.30630991    0.45386008    0.36679994    0.13080000
opls_146-879    H    0.19786990    0.38696993    0.40391991    0.13230000
opls_146-880    H    0.18745996    0.36500000    0.33325008    0.13150000
opls_146-881    H    0.25647008    0.36844001    0.44845014    0.12800000
opls_146-882    H    0.26206996    0.49513992    0.61018994    0.13270000
opls_146-883    H    0.26808009    0.42847008    0.58354986    0.13750000
opls_146-884    H    0.30159988    0.66603989    0.50411998    0.13470000
opls_146-885    H    0.29515986    0.72684995    0.46110985    0.13410000
opls_146-886    H    0.20157011    0.66672998    0.38957011    0.13060000
opls_146-887    H    0.20596011    0.60649003    0.43406996    0.13060000
opls_146-888    H    0.64469991    0.09566002    0.75316999    0.13060000
opls_144-889    H    0.58166002    0.23064989    0.73428015    0.12170000
opls_144-890    H    0.92947990    0.23418012    0.71730009    0.12760000
opls_146-891    H    0.59462995    0.15218012    0.74983001    0.12910000
opls_146-892    H    0.70445996    0.29449003    0.56754004    0.13870000
opls_146-893    H    0.63320006    0.30630991    0.54613992    0.13080000
opls_146-894    H    0.59608009    0.19786990    0.61303007    0.13230000
opls_146-895    H    0.66674992    0.18745996    0.63500000    0.13150000
opls_146-896    H    0.55154986    0.25647008    0.63155999    0.12800000
opls_146-897    H    0.38981006    0.26206996    0.50486008    0.13270000
opls_146-898    H    0.41645014    0.26808009    0.57152992    0.13750000
opls_146-899    H    0.49588002    0.30159988    0.33396011    0.13470000
opls_146-900    H    0.53889015    0.29515986    0.27315005    0.13410000
opls_146-901    H    0.61042989    0.20157011    0.33327002    0.13060000
opls_146-902    H    0.56593004    0.20596011    0.39350997    0.13060000
opls_146-903    H    0.35530009    0.09566002    0.24683001    0.13060000
opls_144-904    H    0.41833998    0.23064989    0.26571985    0.12170000
opls_144-905    H    0.07052010    0.23418012    0.28269991    0.12760000
opls_146-906    H    0.40537005    0.15218012    0.25016999    0.12910000
opls_146-907    H    0.29554004    0.29449003    0.43245996    0.13870000
opls_146-908    H    0.36679994    0.30630991    0.45386008    0.13080000
opls_146-909    H    0.40391991    0.19786990    0.38696993    0.13230000
opls_146-910    H    0.33325008    0.18745996    0.36500000    0.13160000
opls_146-911    H    0.44845014    0.25647008    0.36844001    0.12800000
opls_146-912    H    0.61018994    0.26206996    0.49513992    0.13270000
opls_146-913    H    0.58354986    0.26808009    0.42847008    0.13750000
opls_146-914    H    0.50411998    0.30159988    0.66603989    0.13470000
opls_146-915    H    0.46110985    0.29515986    0.72684995    0.13420000
opls_146-916    H    0.38957011    0.20157011    0.66672998    0.13060000
opls_146-917    H    0.43406996    0.20596011    0.60649003    0.13060000
opls_146-918    H    0.64469991    0.90433998    0.24683001    0.13070000
opls_144-919    H    0.58166002    0.76935011    0.26571985    0.12170000
opls_144-920    H    0.92947990    0.76581988    0.28269991    0.12760000
opls_146-921    H    0.59462995    0.84781988    0.25016999    0.12910000
opls_146-922    H    0.70445996    0.70550997    0.43245996    0.13870000
opls_146-923    H    0.63320006    0.69369009    0.45386008    0.13080000
opls_146-924    H    0.59608009    0.80213010    0.38696993    0.13230000
opls_146-925    H    0.66674992    0.81254004    0.36500000    0.13150000
opls_146-926    H    0.55154986    0.74352992    0.36844001    0.12800000
opls_146-927    H    0.38981006    0.73793004    0.49513992    0.13270000
opls_146-928    H    0.41645014    0.73191991    0.42847008    0.13750000
opls_146-929    H    0.49588002    0.69840012    0.66603989    0.13470000
opls_146-930    H    0.53889015    0.70484014    0.72684995    0.13410000
opls_146-931    H    0.61042989    0.79842989    0.66672998    0.13070000
opls_146-932    H    0.56593004    0.79403989    0.60649003    0.13060000
opls_146-933    H    0.35530009    0.90433998    0.75316999    0.13060000
opls_144-934    H    0.41833998    0.76935011    0.73428015    0.12170000
opls_144-935    H    0.07052010    0.76581988    0.71730009    0.12760000
opls_146-936    H    0.40537005    0.84781988    0.74983001    0.12910000
opls_146-937    H    0.29554004    0.70550997    0.56754004    0.13870000
opls_146-938    H    0.36679994    0.69369009    0.54613992    0.13080000
opls_146-939    H    0.40391991    0.80213010    0.61303007    0.13230000
opls_146-940    H    0.33325008    0.81254004    0.63500000    0.13160000
opls_146-941    H    0.44845014    0.74352992    0.63155999    0.12800000
opls_146-942    H    0.61018994    0.73793004    0.50486008    0.13270000
opls_146-943    H    0.58354986    0.73191991    0.57152992    0.13750000
opls_146-944    H    0.50411998    0.69840012    0.33396011    0.13470000
opls_146-945    H    0.46110985    0.70484014    0.27315005    0.13410000
opls_146-946    H    0.38957011    0.79842989    0.33327002    0.13060000
opls_146-947    H    0.43406996    0.79403989    0.39350997    0.13060000
opls_146-948    H    0.74683001    0.14469991    0.40433998    0.13060000
opls_144-949    H    0.76571985    0.08166002    0.26935011    0.12180000
opls_144-950    H    0.78269991    0.42947990    0.26581988    0.12770000
opls_146-951    H    0.75016999    0.09462995    0.34781988    0.12910000
opls_146-952    H    0.93245996    0.20445996    0.20550997    0.13870000
opls_146-953    H    0.95386008    0.13320006    0.19369009    0.13080000
opls_146-954    H    0.88696993    0.09608009    0.30213010    0.13230000
opls_146-955    H    0.86500000    0.16674992    0.31254004    0.13150000
opls_146-956    H    0.86844001    0.05154986    0.24352992    0.12800000
opls_146-957    H    0.99513992    0.88981006    0.23793004    0.13270000
opls_146-958    H    0.92847008    0.91645014    0.23191991    0.13760000
opls_146-959    H    0.16603989    0.99588002    0.19840012    0.13470000
opls_146-960    H    0.22684995    0.03889015    0.20484014    0.13410000
opls_146-961    H    0.16672998    0.11042989    0.29842989    0.13060000
opls_146-962    H    0.10649003    0.06593004    0.29403989    0.13060000
opls_146-963    H    0.25316999    0.85530009    0.40433998    0.13060000
opls_144-964    H    0.23428015    0.91833998    0.26935011    0.12170000
opls_144-965    H    0.21730009    0.57052010    0.26581988    0.12760000
opls_146-966    H    0.24983001    0.90537005    0.34781988    0.12910000
opls_146-967    H    0.06754004    0.79554004    0.20550997    0.13880000
opls_146-968    H    0.04613992    0.86679994    0.19369009    0.13080000
opls_146-969    H    0.11303007    0.90391991    0.30213010    0.13230000
opls_146-970    H    0.13500000    0.83325008    0.31254004    0.13150000
opls_146-971    H    0.13155999    0.94845014    0.24352992    0.12800000
opls_146-972    H    0.00486008    0.11018994    0.23793004    0.13270000
opls_146-973    H    0.07152992    0.08354986    0.23191991    0.13750000
opls_146-974    H    0.83396011    0.00411998    0.19840012    0.13470000
opls_146-975    H    0.77315005    0.96110985    0.20484014    0.13410000
opls_146-976    H    0.83327002    0.88957011    0.29842989    0.13070000
opls_146-977    H    0.89350997    0.93406996    0.29403989    0.13060000
opls_146-978    H    0.25316999    0.14469991    0.59566002    0.13060000
opls_144-979    H    0.23428015    0.08166002    0.73064989    0.12170000
opls_144-980    H    0.21730009    0.42947990    0.73418012    0.12760000
opls_146-981    H    0.24983001    0.09462995    0.65218012    0.12920000
opls_146-982    H    0.06754004    0.20445996    0.79449003    0.13870000
opls_146-983    H    0.04613992    0.13320006    0.80630991    0.13080000
opls_146-984    H    0.11303007    0.09608009    0.69786990    0.13230000
opls_146-985    H    0.13500000    0.16674992    0.68745996    0.13150000
opls_146-986    H    0.13155999    0.05154986    0.75647008    0.12800000
opls_146-987    H    0.00486008    0.88981006    0.76206996    0.13280000
opls_146-988    H    0.07152992    0.91645014    0.76808009    0.13750000
opls_146-989    H    0.83396011    0.99588002    0.80159988    0.13470000
opls_146-990    H    0.77315005    0.03889015    0.79515986    0.13410000
opls_146-991    H    0.83327002    0.11042989    0.70157011    0.13060000
opls_146-992    H    0.89350997    0.06593004    0.70596011    0.13060000
opls_146-993    H    0.74683001    0.85530009    0.59566002    0.13060000
opls_144-994    H    0.76571985    0.91833998    0.73064989    0.12170000
opls_144-995    H    0.78269991    0.57052010    0.73418012    0.12760000
opls_146-996    H    0.75016999    0.90537005    0.65218012    0.12910000
opls_146-997    H    0.93245996    0.79554004    0.79449003    0.13870000
opls_146-998    H    0.95386008    0.86679994    0.80630991    0.13090000
opls_146-999    H    0.88696993    0.90391991    0.69786990    0.13240000
opls_146-1000    H    0.86500000    0.83325008    0.68745996    0.13150000
opls_146-1001    H    0.86844001    0.94845014    0.75647008    0.12800000
opls_146-1002    H    0.99513992    0.11018994    0.76206996    0.13270000
opls_146-1003    H    0.92847008    0.08354986    0.76808009    0.13750000
opls_146-1004    H    0.16603989    0.00411998    0.80159988    0.13470000
opls_146-1005    H    0.22684995    0.96110985    0.79515986    0.13410000
opls_146-1006    H    0.16672998    0.88957011    0.70157011    0.13060000
opls_146-1007    H    0.10649003    0.93406996    0.70596011    0.13060000
opls_146-1008    H    0.40433998    0.74683001    0.14469991    0.13060000
opls_144-1009    H    0.26935011    0.76571985    0.08166002    0.12170000
opls_144-1010    H    0.26581988    0.78269991    0.42947990    0.12760000
opls_146-1011    H    0.34781988    0.75016999    0.09462995    0.12910000
opls_146-1012    H    0.20550997    0.93245996    0.20445996    0.13870000
opls_146-1013    H    0.19369009    0.95386008    0.13320006    0.13080000
opls_146-1014    H    0.30213010    0.88696993    0.09608009    0.13230000
opls_146-1015    H    0.31254004    0.86500000    0.16674992    0.13150000
opls_146-1016    H    0.24352992    0.86844001    0.05154986    0.12800000
opls_146-1017    H    0.23793004    0.99513992    0.88981006    0.13270000
opls_146-1018    H    0.23191991    0.92847008    0.91645014    0.13750000
opls_146-1019    H    0.19840012    0.16603989    0.99588002    0.13470000
opls_146-1020    H    0.20484014    0.22684995    0.03889015    0.13410000
opls_146-1021    H    0.29842989    0.16672998    0.11042989    0.13060000
opls_146-1022    H    0.29403989    0.10649003    0.06593004    0.13060000
opls_146-1023    H    0.40433998    0.25316999    0.85530009    0.13060000
opls_144-1024    H    0.26935011    0.23428015    0.91833998    0.12180000
opls_144-1025    H    0.26581988    0.21730009    0.57052010    0.12760000
opls_146-1026    H    0.34781988    0.24983001    0.90537005    0.12920000
opls_146-1027    H    0.20550997    0.06754004    0.79554004    0.13870000
opls_146-1028    H    0.19369009    0.04613992    0.86679994    0.13080000
opls_146-1029    H    0.30213010    0.11303007    0.90391991    0.13230000
opls_146-1030    H    0.31254004    0.13500000    0.83325008    0.13150000
opls_146-1031    H    0.24352992    0.13155999    0.94845014    0.12800000
opls_146-1032    H    0.23793004    0.00486008    0.11018994    0.13270000
opls_146-1033    H    0.23191991    0.07152992    0.08354986    0.13750000
opls_146-1034    H    0.19840012    0.83396011    0.00411998    0.13470000
opls_146-1035    H    0.20484014    0.77315005    0.96110985    0.13410000
opls_146-1036    H    0.29842989    0.83327002    0.88957011    0.13060000
opls_146-1037    H    0.29403989    0.89350997    0.93406996    0.13060000
opls_146-1038    H    0.59566002    0.25316999    0.14469991    0.13060000
opls_144-1039    H    0.73064989    0.23428015    0.08166002    0.12170000
opls_144-1040    H    0.73418012    0.21730009    0.42947990    0.12780000
opls_146-1041    H    0.65218012    0.24983001    0.09462995    0.12910000
opls_146-1042    H    0.79449003    0.06754004    0.20445996    0.13870000
opls_146-1043    H    0.80630991    0.04613992    0.13320006    0.13080000
opls_146-1044    H    0.69786990    0.11303007    0.09608009    0.13230000
opls_146-1045    H    0.68745996    0.13500000    0.16674992    0.13150000
opls_146-1046    H    0.75647008    0.13155999    0.05154986    0.12800000
opls_146-1047    H    0.76206996    0.00486008    0.88981006    0.13270000
opls_146-1048    H    0.76808009    0.07152992    0.91645014    0.13750000
opls_146-1049    H    0.80159988    0.83396011    0.99588002    0.13470000
opls_146-1050    H    0.79515986    0.77315005    0.03889015    0.13410000
opls_146-1051    H    0.70157011    0.83327002    0.11042989    0.13060000
opls_146-1052    H    0.70596011    0.89350997    0.06593004    0.13070000
opls_146-1053    H    0.59566002    0.74683001    0.85530009    0.13070000
opls_144-1054    H    0.73064989    0.76571985    0.91833998    0.12170000
opls_144-1055    H    0.73418012    0.78269991    0.57052010    0.12760000
opls_146-1056    H    0.65218012    0.75016999    0.90537005    0.12910000
opls_146-1057    H    0.79449003    0.93245996    0.79554004    0.13870000
opls_146-1058    H    0.80630991    0.95386008    0.86679994    0.13090000
opls_146-1059    H    0.69786990    0.88696993    0.90391991    0.13230000
opls_146-1060    H    0.68745996    0.86500000    0.83325008    0.13150000
opls_146-1061    H    0.75647008    0.86844001    0.94845014    0.12800000
opls_146-1062    H    0.76206996    0.99513992    0.11018994    0.13270000
opls_146-1063    H    0.76808009    0.92847008    0.08354986    0.13750000
opls_146-1064    H    0.80159988    0.16603989    0.00411998    0.13470000
opls_146-1065    H    0.79515986    0.22684995    0.96110985    0.13410000
opls_146-1066    H    0.70157011    0.16672998    0.88957011    0.13060000
opls_146-1067    H    0.70596011    0.10649003    0.93406996    0.13060000
opls_146-1068    H    0.14469991    0.59566002    0.25316999    0.13060000
opls_144-1069    H    0.08166002    0.73064989    0.23428015    0.12170000
opls_144-1070    H    0.42947990    0.73418012    0.21730009    0.12760000
opls_146-1071    H    0.09462995    0.65218012    0.24983001    0.12910000
opls_146-1072    H    0.20445996    0.79449003    0.06754004    0.13870000
opls_146-1073    H    0.13320006    0.80630991    0.04613992    0.13080000
opls_146-1074    H    0.09608009    0.69786990    0.11303007    0.13230000
opls_146-1075    H    0.16674992    0.68745996    0.13500000    0.13150000
opls_146-1076    H    0.05154986    0.75647008    0.13155999    0.12800000
opls_146-1077    H    0.88981006    0.76206996    0.00486008    0.13270000
opls_146-1078    H    0.91645014    0.76808009    0.07152992    0.13750000
opls_146-1079    H    0.99588002    0.80159988    0.83396011    0.13470000
opls_146-1080    H    0.03889015    0.79515986    0.77315005    0.13410000
opls_146-1081    H    0.11042989    0.70157011    0.83327002    0.13060000
opls_146-1082    H    0.06593004    0.70596011    0.89350997    0.13060000
opls_146-1083    H    0.85530009    0.59566002    0.74683001    0.13060000
opls_144-1084    H    0.91833998    0.73064989    0.76571985    0.12170000
opls_144-1085    H    0.57052010    0.73418012    0.78269991    0.12760000
opls_146-1086    H    0.90537005    0.65218012    0.75016999    0.12920000
opls_146-1087    H    0.79554004    0.79449003    0.93245996    0.13870000
opls_146-1088    H    0.86679994    0.80630991    0.95386008    0.13080000
opls_146-1089    H    0.90391991    0.69786990    0.88696993    0.13230000
opls_146-1090    H    0.83325008    0.68745996    0.86500000    0.13150000
opls_146-1091    H    0.94845014    0.75647008    0.86844001    0.12800000
opls_146-1092    H    0.11018994    0.76206996    0.99513992    0.13270000
opls_146-1093    H    0.08354986    0.76808009    0.92847008    0.13760000
opls_146-1094    H    0.00411998    0.80159988    0.16603989    0.13470000
opls_146-1095    H    0.96110985    0.79515986    0.22684995    0.13410000
opls_146-1096    H    0.88957011    0.70157011    0.16672998    0.13060000
opls_146-1097    H    0.93406996    0.70596011    0.10649003    0.13060000
opls_146-1098    H    0.14469991    0.40433998    0.74683001    0.13070000
opls_144-1099    H    0.08166002    0.26935011    0.76571985    0.12170000
opls_144-1100    H    0.42947990    0.26581988    0.78269991    0.12760000
opls_146-1101    H    0.09462995    0.34781988    0.75016999    0.12910000
opls_146-1102    H    0.20445996    0.20550997    0.93245996    0.13870000
opls_146-1103    H    0.13320006    0.19369009    0.95386008    0.13080000
opls_146-1104    H    0.09608009    0.30213010    0.88696993    0.13230000
opls_146-1105    H    0.16674992    0.31254004    0.86500000    0.13150000
opls_146-1106    H    0.05154986    0.24352992    0.86844001    0.12800000
opls_146-1107    H    0.88981006    0.23793004    0.99513992    0.13270000
opls_146-1108    H    0.91645014    0.23191991    0.92847008    0.13750000
opls_146-1109    H    0.99588002    0.19840012    0.16603989    0.13470000
opls_146-1110    H    0.03889015    0.20484014    0.22684995    0.13410000
opls_146-1111    H    0.11042989    0.29842989    0.16672998    0.13060000
opls_146-1112    H    0.06593004    0.29403989    0.10649003    0.13060000
opls_146-1113    H    0.85530009    0.40433998    0.25316999    0.13060000
opls_144-1114    H    0.91833998    0.26935011    0.23428015    0.12170000
opls_144-1115    H    0.57052010    0.26581988    0.21730009    0.12770000
opls_146-1116    H    0.90537005    0.34781988    0.24983001    0.12920000
opls_146-1117    H    0.79554004    0.20550997    0.06754004    0.13870000
opls_146-1118    H    0.86679994    0.19369009    0.04613992    0.13080000
opls_146-1119    H    0.90391991    0.30213010    0.11303007    0.13230000
opls_146-1120    H    0.83325008    0.31254004    0.13500000    0.13150000
opls_146-1121    H    0.94845014    0.24352992    0.13155999    0.12800000
opls_146-1122    H    0.11018994    0.23793004    0.00486008    0.13270000
opls_146-1123    H    0.08354986    0.23191991    0.07152992    0.13750000
opls_146-1124    H    0.00411998    0.19840012    0.83396011    0.13470000
opls_146-1125    H    0.96110985    0.20484014    0.77315005    0.13410000
opls_146-1126    H    0.88957011    0.29842989    0.83327002    0.13070000
opls_146-1127    H    0.93406996    0.29403989    0.89350997    0.13060000
F2_Ti6+4-1128    Ti    0.24511998    0.75488002    0.75488002    0.91580000
F2_Ti6+4-1129    Ti    0.75488002    0.24511998    0.75488002    0.91590000
F2_Ti6+4-1130    Ti    0.75488002    0.75488002    0.24511998    0.91570000
F2_Ti6+4-1131    Ti    0.24511998    0.24511998    0.24511998    0.91590000
F2_Ti6+4-1132    Ti    0.74511998    0.25488002    0.25488002    0.91580000
F2_Ti6+4-1133    Ti    0.25488002    0.74511998    0.25488002    0.91580000
F2_Ti6+4-1134    Ti    0.25488002    0.25488002    0.74511998    0.91570000
F2_Ti6+4-1135    Ti    0.74511998    0.74511998    0.74511998    0.91580000
