#======================================================================
# Crystal Data Generated By AuToFF
#----------------------------------------------------------------------

data_AuToFF_phase_1

_cell_length_a                         5.5362
_cell_length_b                         48.7551
_cell_length_c                         49.2021
_cell_angle_alpha                      60.62
_cell_angle_beta                       88.02
_cell_angle_gamma                      91.31
_symmetry_space_group_name_H-M_alt     'P 1'
_symmetry_space_group_IT_number        1

loop_
_space_group_symop_operation_xyz
   'x, y, z'

loop_
   _atom_site_label
   _atom_site_type_symbol
   _atom_site_fract_x
   _atom_site_fract_y
   _atom_site_fract_z
   _atom_site_charge
opls_700-0    C    0.08112010    0.60146996    0.80976002    0.02950000
opls_700-1    C    0.09673978    0.63485995    0.79478002    -0.04030000
opls_521-2    C    0.10259063    0.65296997    0.76128995    0.19310000
opls_521-3    C    0.09723032    0.60701983    0.75680998    0.19860000
opls_700-4    C    0.07974940    0.58780980    0.79000016    -0.04770000
opls_423-5    C    0.05740969    0.55398985    0.80525997    0.24160000
opls_423-6    C    0.11772905    0.65096983    0.81258005    0.25240000
opls_142-7    C    0.07816016    0.58042993    0.84367003    -0.13120000
opls_142-8    C    0.10660973    0.59592985    0.73380010    -0.13290000
opls_142-9    C    0.10875033    0.68762986    0.74494010    -0.13260000
opls_142-10    C    0.01290979    0.58796978    0.86596008    -0.12600000
opls_142-11    C    0.08351976    0.70554979    0.71375016    -0.10960000
opls_142-12    C    0.07890934    0.56593980    0.73908002    -0.10970000
opls_700-13    C    0.01444908    0.56645984    0.89958001    0.10030000
opls_145-14    C    0.84512998    0.57047988    0.91922005    -0.13290000
opls_145-15    C    0.18155029    0.54256989    0.91311005    -0.14300000
opls_700-16    C    0.83768049    0.55092983    0.95169996    0.12690000
opls_700-17    C    0.18353064    0.52327987    0.94561005    0.10490000
opls_700-18    C    0.01019062    0.52730992    0.96531012    -0.02930000
opls_700-19    C    0.07686908    0.74011982    0.69733001    0.10110000
opls_145-20    C    0.90854986    0.75585985    0.67440000    -0.14140000
opls_145-21    C    0.23813879    0.75848991    0.70391997    -0.17210000
opls_700-22    C    0.89081902    0.78866992    0.65939010    0.10690000
opls_700-23    C    0.23126953    0.79141984    0.68874004    0.12360000
opls_700-24    C    0.05352973    0.80697997    0.66662003    -0.02910000
opls_700-25    C    0.06425063    0.55702996    0.71453002    0.13170000
opls_145-26    C    0.22689003    0.56958983    0.68826007    -0.14350000
opls_145-27    C    0.88316043    0.53474991    0.71753013    -0.14770000
opls_700-28    C    0.22211046    0.55884991    0.66651002    0.12380000
opls_700-29    C    0.86351949    0.52512992    0.69508010    0.12490000
opls_700-30    C    0.03897069    0.53644989    0.66962995    -0.02930000
opls_148-31    C    0.37279931    0.49898985    0.95838008    -0.40980000
opls_148-32    C    0.64261054    0.55571979    0.97075003    -0.41450000
opls_148-33    C    0.69673882    0.80272991    0.63624008    -0.41160000
opls_148-34    C    0.42036912    0.80870994    0.69653005    -0.41500000
opls_148-35    C    0.65657020    0.50264993    0.69917001    -0.41490000
opls_148-36    C    0.42009948    0.57111979    0.64118016    -0.41500000
opls_700-37    C    0.05443011    0.52180997    0.01863012    0.03230000
opls_700-38    C    0.96240884    0.47407996    0.01484010    0.03140000
opls_700-39    C    0.03875954    0.50301990    0.05213000    -0.00230000
opls_145-40    C    0.10808954    0.55521990    0.00523998    -0.17580000
opls_700-41    C    0.98318989    0.45486000    0.04792003    0.00260000
opls_145-42    C    0.89358082    0.45899991    0.99755997    -0.11100000
opls_700-43    C    0.04614961    0.51787987    0.07103011    -0.00080000
opls_700-44    C    0.01300008    0.46966002    0.06652002    -0.00240000
opls_145-45    C    0.11888987    0.56934003    0.02333010    -0.13260000
opls_700-46    C    0.96537008    0.42112992    0.06227012    0.03220000
opls_145-47    C    0.86511014    0.42645991    0.01193995    -0.08390000
opls_700-48    C    0.01549041    0.49935003    0.10429993    -0.00100000
opls_700-49    C    0.07839990    0.55132000    0.05669007    0.07040000
opls_700-50    C    0.01101942    0.45091000    0.09994002    -0.00210000
opls_700-51    C    0.00551909    0.40219986    0.09562005    0.02900000
opls_145-52    C    0.90696994    0.40752998    0.04377990    -0.17910000
opls_700-53    C    0.99766034    0.51428994    0.12295995    0.02940000
opls_700-54    C    0.00721995    0.46562001    0.11863997    -0.00200000
opls_145-55    C    0.07185904    0.56555996    0.07573990    -0.12860000
opls_700-56    C    0.01625043    0.41727005    0.11417005    -0.00100000
opls_145-57    C    0.03438005    0.36927996    0.11036999    -0.12840000
opls_700-58    C    0.95024937    0.49489003    0.15674991    0.03210000
opls_145-59    C    0.02796892    0.54754990    0.10790007    -0.13260000
opls_700-60    C    0.99809884    0.44680996    0.15208006    -0.00240000
opls_700-61    C    0.03619908    0.39897009    0.14723994    -0.00200000
opls_145-62    C    0.06903021    0.35166004    0.14219990    -0.12850000
opls_700-63    C    0.96365882    0.46129003    0.17098999    0.00400000
opls_145-64    C    0.89025954    0.50798989    0.17582006    -0.13180000
opls_700-65    C    0.02015902    0.41367987    0.16625007    -0.00230000
opls_700-66    C    0.06642926    0.36587002    0.16127005    0.07040000
opls_700-67    C    0.93539890    0.44183989    0.20432007    0.03120000
opls_145-68    C    0.84700906    0.48872997    0.20822009    -0.06680000
opls_700-69    C    0.02325920    0.39488999    0.19968011    0.03130000
opls_145-70    C    0.09515023    0.34812991    0.19438011    -0.12840000
opls_145-71    C    0.87158949    0.45645988    0.22234012    -0.17900000
opls_145-72    C    0.07427983    0.36200987    0.21264003    -0.17230000
opls_700-73    C    0.07733018    0.49125992    0.65897997    0.03140000
opls_700-74    C    0.00820058    0.54380997    0.61468996    0.03110000
opls_700-75    C    0.06932967    0.47826993    0.63833000    -0.00230000
opls_145-76    C    0.12112993    0.47009981    0.69136015    -0.15310000
opls_700-77    C    0.03240998    0.53158999    0.59348996    0.00070000
opls_145-78    C    0.95637928    0.57616992    0.60218012    -0.11110000
opls_700-79    C    0.07413927    0.44487994    0.65068009    -0.00150000
opls_700-80    C    0.05577052    0.49854984    0.60565016    -0.00260000
opls_145-81    C    0.12729987    0.43825000    0.70307004    -0.12860000
opls_700-82    C    0.02742922    0.55226978    0.56037008    0.02940000
opls_145-83    C    0.93955922    0.59559985    0.57030000    -0.08640000
opls_700-84    C    0.05458041    0.43175989    0.63041013    -0.00090000
opls_700-85    C    0.09435905    0.42450000    0.68338001    0.07240000
opls_700-86    C    0.06443932    0.48558999    0.58497006    -0.00200000
opls_700-87    C    0.07342956    0.53958995    0.53924015    0.02960000
opls_145-88    C    0.97904027    0.58407991    0.54941997    -0.12640000
opls_700-89    C    0.03570016    0.39842996    0.64306011    0.03190000
opls_700-90    C    0.05979902    0.45251002    0.59727998    -0.00210000
opls_145-91    C    0.08584912    0.39155002    0.69526998    -0.12810000
opls_700-92    C    0.08303988    0.50632981    0.55183010    -0.00130000
opls_145-93    C    0.11230001    0.55915988    0.50652994    -0.12540000
opls_700-94    C    0.00210026    0.38557989    0.62204999    0.03130000
opls_145-95    C    0.05267965    0.37891979    0.67567011    -0.12840000
opls_700-96    C    0.06572917    0.43951998    0.57664005    -0.00240000
opls_700-97    C    0.11751920    0.49328982    0.53155010    -0.00070000
opls_145-98    C    0.16012899    0.54669984    0.48690999    -0.12850000
opls_700-99    C    0.03146913    0.40633996    0.58892007    0.00440000
opls_145-100    C    0.94159014    0.35356980    0.63315005    -0.14070000
opls_700-101    C    0.10373965    0.45983998    0.54391000    -0.00040000
opls_700-102    C    0.16221032    0.51376991    0.49881000    0.07570000
opls_700-103    C    0.02048921    0.39400992    0.56780999    0.03230000
opls_145-104    C    0.91247008    0.34192990    0.61235013    -0.06990000
opls_700-105    C    0.12796957    0.44678980    0.52333010    0.03100000
opls_145-106    C    0.21276934    0.50013990    0.47918000    -0.11980000
opls_145-107    C    0.95401970    0.36143990    0.58045997    -0.15920000
opls_145-108    C    0.19894895    0.46818988    0.49095996    -0.13640000
opls_700-109    C    0.96121044    0.38849998    0.25352002    -0.02910000
opls_700-110    C    0.77957959    0.36386984    0.26884009    0.12020000
opls_700-111    C    0.13603925    0.39309991    0.27160010    0.12310000
opls_145-112    C    0.77981006    0.34401987    0.30125998    -0.14770000
opls_148-113    C    0.58674999    0.35794993    0.25130001    -0.41500000
opls_145-114    C    0.13009953    0.37307987    0.30401999    -0.14900000
opls_148-115    C    0.33389938    0.41844985    0.25706013    -0.41460000
opls_700-116    C    0.95494911    0.34805989    0.31930993    0.10010000
opls_142-117    C    0.95578991    0.32545002    0.35276006    -0.12840000
opls_142-118    C    0.07849967    0.32988995    0.37379003    -0.13280000
opls_521-119    C    0.08855013    0.30716984    0.40727006    0.20710000
opls_700-120    C    0.09674064    0.27393994    0.41988010    -0.04720000
opls_700-121    C    0.11027040    0.25404999    0.45256998    0.02940000
opls_423-122    C    0.09889006    0.25992997    0.39998010    0.25240000
opls_521-123    C    0.11942921    0.30212996    0.45691004    0.22670000
opls_700-124    C    0.12373939    0.26866002    0.47127998    -0.04770000
opls_142-125    C    0.11543971    0.21974986    0.46520011    -0.10970000
opls_142-126    C    0.13563024    0.31853982    0.47503006    -0.13160000
opls_423-127    C    0.15418013    0.25038001    0.50442998    0.25760000
opls_142-128    C    0.98836045    0.19800992    0.49141004    -0.13070000
opls_142-129    C    0.07989074    0.34921998    0.46291003    -0.13060000
opls_700-130    C    0.98381042    0.16386003    0.50355996    0.12990000
opls_700-131    C    0.09092061    0.36695989    0.47978002    0.10110000
opls_145-132    C    0.80058053    0.14472991    0.52605998    -0.12470000
opls_145-133    C    0.15642034    0.14910991    0.49392013    -0.14770000
opls_145-134    C    0.25837052    0.36020007    0.50295994    -0.13910000
opls_145-135    C    0.93137033    0.39137980    0.47304011    -0.12470000
opls_700-136    C    0.78699077    0.11189984    0.53862004    0.12360000
opls_700-137    C    0.14874065    0.11633992    0.50629007    0.12370000
opls_700-138    C    0.26135943    0.37637985    0.51990000    0.12360000
opls_700-139    C    0.92566908    0.40742997    0.49019014    0.10310000
opls_700-140    C    0.96309995    0.09724982    0.52895008    -0.02920000
opls_148-141    C    0.58376951    0.09326998    0.56203001    -0.41490000
opls_148-142    C    0.34086049    0.10243992    0.49505011    -0.41500000
opls_700-143    C    0.09015925    0.39970992    0.51426997    -0.02920000
opls_148-144    C    0.44822056    0.36812989    0.54384997    -0.41500000
opls_148-145    C    0.74090969    0.43200995    0.48259001    -0.41310000
opls_700-146    C    0.00335039    0.04258997    0.57475006    0.03160000
opls_700-147    C    0.90965014    0.04802997    0.52374000    0.03120000
opls_700-148    C    0.99806039    0.00888001    0.58802997    0.00030000
opls_145-149    C    0.05392065    0.05537986    0.59503007    -0.16680000
opls_700-150    C    0.92521989    0.01462989    0.53626012    0.00140000
opls_145-151    C    0.84698965    0.06654991    0.49213011    -0.11980000
opls_700-152    C    0.02416940    0.98906988    0.62085999    -0.00230000
opls_700-153    C    0.96702918    0.99515992    0.56860013    -0.00210000
opls_145-154    C    0.08040018    0.03643992    0.62631998    -0.12860000
opls_700-155    C    0.89531023    0.00089989    0.51650003    0.03020000
opls_145-156    C    0.80513973    0.05280003    0.47378003    -0.06990000
opls_700-157    C    0.01219928    0.95550988    0.63434005    -0.00100000
opls_700-158    C    0.06010071    0.00270995    0.64037998    0.07040000
opls_700-159    C    0.97779906    0.96162996    0.58164997    -0.00190000
opls_700-160    C    0.93510963    0.96734001    0.52897998    0.02940000
opls_145-161    C    0.83200930    0.02039004    0.48555999    -0.08670000
opls_700-162    C    0.01975905    0.93577978    0.66733006    0.02910000
opls_700-163    C    0.99796984    0.94202984    0.61422004    -0.00200000
opls_145-164    C    0.07718908    0.98271977    0.67285008    -0.12830000
opls_700-165    C    0.97261886    0.94814990    0.56146012    -0.00010000
opls_145-166    C    0.94320024    0.95310979    0.50986008    -0.13260000
opls_700-167    C    0.99371869    0.90156986    0.68076995    0.03470000
opls_145-168    C    0.05367993    0.95015986    0.68598003    -0.12850000
opls_700-169    C    0.00991975    0.90851985    0.62723998    -0.00240000
opls_700-170    C    0.01146005    0.91526989    0.57412996    -0.00210000
opls_145-171    C    0.99295920    0.92152995    0.52178999    -0.12860000
opls_700-172    C    0.00160910    0.88840990    0.66030006    -0.00060000
opls_145-173    C    0.96074026    0.88103989    0.71308006    -0.12540000
opls_700-174    C    0.02812857    0.89539987    0.60710012    -0.00080000
opls_700-175    C    0.02942974    0.90209001    0.55389993    0.07040000
opls_700-176    C    0.99422986    0.85488986    0.67282999    0.03100000
opls_145-177    C    0.93208983    0.84834987    0.72513002    -0.09670000
opls_700-178    C    0.06296957    0.86222996    0.61986011    0.03160000
opls_145-179    C    0.09358006    0.86978997    0.56676993    -0.12840000
opls_145-180    C    0.94902933    0.83536997    0.70567006    -0.17910000
opls_145-181    C    0.11803956    0.85104991    0.59813995    -0.16310000
opls_700-182    C    0.95789017    0.06206990    0.54286013    -0.02840000
opls_700-183    C    0.03669988    0.84187980    0.65250001    -0.02710000
opls_700-184    C    0.97324984    0.40863986    0.21865006    -0.02860000
opls_700-185    C    0.01060993    0.50753011    0.00008992    -0.02850000
opls_700-186    C    0.03953049    0.52363996    0.64747000    -0.02840000
opls_700-187    C    0.07948044    0.41419983    0.53501009    -0.02840000
opls_700-188    C    0.65904936    0.95148997    0.12284994    0.03470000
opls_700-189    C    0.63496986    0.98433999    0.10960998    -0.04610000
opls_521-190    C    0.61662010    0.00330987    0.07669004    0.22560000
opls_521-191    C    0.63274996    0.95916997    0.06979994    0.19530000
opls_700-192    C    0.66631951    0.93903997    0.10219997    -0.04530000
opls_423-193    C    0.71438881    0.90618003    0.11452997    0.25160000
opls_423-194    C    0.64004874    0.99907000    0.12887001    0.24690000
opls_142-195    C    0.67676899    0.93029005    0.15661001    -0.10970000
opls_142-196    C    0.62854921    0.94732009    0.04745991    -0.13290000
opls_142-197    C    0.60637068    0.03756008    0.06254992    -0.13160000
opls_142-198    C    0.52052922    0.93049001    0.17837010    -0.13020000
opls_142-199    C    0.53359942    0.05676011    0.03329995    -0.11000000
opls_142-200    C    0.52359944    0.91920003    0.05388989    -0.13070000
opls_700-201    C    0.51965979    0.90944984    0.21216006    0.10110000
opls_145-202    C    0.34282979    0.91316991    0.23127996    -0.14770000
opls_145-203    C    0.68683945    0.88567991    0.22657998    -0.14770000
opls_700-204    C    0.33372991    0.89432994    0.26390001    0.12020000
opls_700-205    C    0.68167994    0.86641986    0.25911011    0.12020000
opls_700-206    C    0.50529894    0.87077998    0.27824005    -0.02960000
opls_700-207    C    0.53121936    0.09115009    0.01912994    0.13090000
opls_145-208    C    0.36450026    0.10831975    0.99642019    -0.12470000
opls_145-209    C    0.69662917    0.10787989    0.02739012    -0.14990000
opls_700-210    C    0.35737010    0.14119983    0.98268998    0.10490000
opls_700-211    C    0.69773953    0.14079999    0.01354990    0.12380000
opls_700-212    C    0.52628010    0.15790993    0.99108001    -0.02920000
opls_700-213    C    0.52695862    0.90604997    0.03274010    0.09980000
opls_145-214    C    0.70908983    0.91488006    0.00882002    -0.13680000
opls_145-215    C    0.34956894    0.88282997    0.03710001    -0.12470000
opls_700-216    C    0.71359970    0.90133978    0.98943013    0.12690000
opls_700-217    C    0.34688908    0.86927003    0.01766994    0.12570000
opls_700-218    C    0.53006012    0.87856996    0.99339999    -0.02910000
opls_148-219    C    0.86572919    0.84157002    0.27275997    -0.41490000
opls_148-220    C    0.13921933    0.89971991    0.28254998    -0.41490000
opls_148-221    C    0.16942084    0.15767991    0.95930009    -0.40990000
opls_148-222    C    0.88677072    0.15672007    0.02290992    -0.41490000
opls_148-223    C    0.14783909    0.84523006    0.02347000    -0.41500000
opls_148-224    C    0.91707957    0.91136980    0.96503008    -0.41490000
opls_700-225    C    0.56215973    0.86582990    0.33117000    0.03160000
opls_700-226    C    0.45026962    0.81803001    0.32839995    0.03140000
opls_700-227    C    0.55938859    0.84727982    0.36466007    -0.00130000
opls_145-228    C    0.61998011    0.89921002    0.31712004    -0.15980000
opls_700-229    C    0.47420889    0.79901999    0.36144998    0.00400000
opls_145-230    C    0.37182923    0.80291999    0.31154000    -0.13250000
opls_700-231    C    0.59251925    0.86232986    0.38311011    -0.00070000
opls_700-232    C    0.52317896    0.81396996    0.37950998    -0.00250000
opls_145-233    C    0.65703847    0.91343991    0.33474000    -0.12840000
opls_700-234    C    0.44345877    0.76530992    0.37627000    0.03200000
opls_145-235    C    0.32965941    0.77052989    0.32642004    -0.06730000
opls_700-236    C    0.57518926    0.84417991    0.41648013    -0.00100000
opls_700-237    C    0.63788957    0.89562987    0.36828005    0.07260000
opls_700-238    C    0.53064897    0.79544990    0.41287999    -0.00200000
opls_700-239    C    0.48770932    0.74634992    0.40949007    0.03020000
opls_145-240    C    0.36981004    0.75170996    0.35830997    -0.13610000
opls_700-241    C    0.58626874    0.85946998    0.43484001    0.02900000
opls_700-242    C    0.55027018    0.81047981    0.43117005    -0.00210000
opls_145-243    C    0.66346860    0.91005989    0.38696996    -0.12860000
opls_700-244    C    0.52061881    0.76168988    0.42751993    -0.00100000
opls_145-245    C    0.50013963    0.71314004    0.42459993    -0.13250000
opls_700-246    C    0.54407986    0.84074997    0.46873999    0.03230000
opls_145-247    C    0.63444989    0.89249000    0.41933006    -0.12850000
opls_700-248    C    0.54602864    0.79196992    0.46461013    -0.00190000
opls_700-249    C    0.54692029    0.74347999    0.46045996    -0.00190000
opls_145-250    C    0.54106910    0.69550985    0.45624999    -0.12860000
opls_700-251    C    0.53166043    0.80699998    0.48321993    0.00440000
opls_145-252    C    0.51164960    0.85460984    0.48774007    -0.17900000
opls_700-253    C    0.55118905    0.75861999    0.47909008    -0.00210000
opls_700-254    C    0.56143902    0.71007983    0.47486003    0.07220000
opls_700-255    C    0.49628971    0.78794982    0.51651007    0.03140000
opls_145-256    C    0.45782873    0.83592983    0.51999015    -0.04930000
opls_700-257    C    0.55663932    0.74003984    0.51251008    0.03120000
opls_145-258    C    0.59847985    0.69246989    0.50779001    -0.14070000
opls_145-259    C    0.44568999    0.80333992    0.53418001    -0.11110000
opls_145-260    C    0.59638980    0.70680994    0.52572014    -0.17160000
opls_700-261    C    0.56598950    0.83299979    0.98252018    0.03140000
opls_700-262    C    0.49467946    0.88594979    0.93903013    0.03140000
opls_700-263    C    0.55311028    0.82058985    0.96139001    -0.00010000
opls_145-264    C    0.61297958    0.81135000    0.01466002    -0.17580000
opls_700-265    C    0.51173915    0.87428984    0.91735015    0.00260000
opls_145-266    C    0.44492899    0.91826977    0.92724012    -0.13150000
opls_700-267    C    0.55820015    0.78729988    0.97305015    -0.00230000
opls_700-268    C    0.53412963    0.84133986    0.92887996    -0.00250000
opls_145-269    C    0.62132890    0.77961000    0.02569001    -0.13260000
opls_700-270    C    0.50055029    0.89548994    0.88442997    0.03190000
opls_145-271    C    0.42145027    0.93816980    0.89560010    -0.06990000
opls_700-272    C    0.53287962    0.77475985    0.95234016    -0.00100000
opls_700-273    C    0.58489883    0.76643988    0.00553006    0.07220000
opls_700-274    C    0.53611968    0.82899980    0.90769000    -0.00210000
opls_700-275    C    0.53942932    0.88345986    0.86268016    0.02910000
opls_145-276    C    0.45314931    0.92718982    0.87418008    -0.08670000
opls_700-277    C    0.51521962    0.74150983    0.96432005    0.02940000
opls_700-278    C    0.53122954    0.79601988    0.91935995    -0.00200000
opls_145-279    C    0.57773912    0.73361000    0.01669996    -0.12840000
opls_700-280    C    0.54844960    0.85029997    0.87465001    -0.00100000
opls_145-281    C    0.57209009    0.90360987    0.82999004    -0.12840000
opls_700-282    C    0.47593959    0.72927993    0.94286009    0.03210000
opls_145-283    C    0.53932907    0.72152980    0.99672008    -0.12840000
opls_700-284    C    0.53067994    0.78367983    0.89816999    -0.00240000
opls_700-285    C    0.57651972    0.83792985    0.85375013    -0.00150000
opls_145-286    C    0.61348963    0.89178992    0.80972008    -0.12860000
opls_700-287    C    0.49746986    0.75058986    0.90980001    0.00260000
opls_145-288    C    0.41776040    0.69729981    0.95347013    -0.13170000
opls_700-289    C    0.56262905    0.80459983    0.86549015    -0.00070000
opls_700-290    C    0.61513872    0.85896982    0.82101003    0.07040000
opls_700-291    C    0.48107954    0.73893991    0.88813007    0.03000000
opls_145-292    C    0.38363004    0.68626988    0.93225004    -0.08390000
opls_700-293    C    0.58271009    0.79224993    0.84432004    0.03010000
opls_145-294    C    0.66183004    0.84600988    0.80076015    -0.12850000
opls_145-295    C    0.41736036    0.70636992    0.90034002    -0.12640000
opls_145-296    C    0.65071011    0.81415990    0.81201016    -0.16680000
opls_700-297    C    0.49809907    0.73477992    0.56594008    -0.02730000
opls_700-298    C    0.31039971    0.71087988    0.58080004    0.12540000
opls_700-299    C    0.66919999    0.73943990    0.58443007    0.12540000
opls_145-300    C    0.29800037    0.69200981    0.61341004    -0.13980000
opls_148-301    C    0.12110958    0.70477995    0.56295002    -0.41460000
opls_145-302    C    0.65047979    0.72033994    0.61695015    -0.16130000
opls_148-303    C    0.87519891    0.76379990    0.57055014    -0.41500000
opls_700-304    C    0.46642922    0.69642987    0.63187994    0.10110000
opls_142-305    C    0.45517940    0.67512002    0.66557998    -0.12490000
opls_142-306    C    0.57431951    0.68107986    0.68587003    -0.17050000
opls_521-307    C    0.58846052    0.65993983    0.71947010    0.22150000
opls_700-308    C    0.60047020    0.62674998    0.73279999    -0.04770000
opls_700-309    C    0.59275005    0.60678989    0.76590001    0.03130000
opls_423-310    C    0.62952967    0.61436985    0.71173007    0.25100000
opls_521-311    C    0.60689935    0.65655982    0.76821998    0.19100000
opls_700-312    C    0.59321892    0.62277999    0.78353001    -0.04060000
opls_142-313    C    0.58141000    0.57240974    0.77853013    -0.08920000
opls_142-314    C    0.61732034    0.67283997    0.78662004    -0.13000000
opls_423-315    C    0.57721042    0.60654982    0.81719011    0.25040000
opls_142-316    C    0.55393013    0.54942999    0.80906003    -0.08920000
opls_142-317    C    0.60088946    0.70443982    0.77429004    -0.10960000
opls_700-318    C    0.53920005    0.51519996    0.82085004    0.13170000
opls_700-319    C    0.58940884    0.71984982    0.79357016    0.13090000
opls_145-320    C    0.39904022    0.49557982    0.84855009    -0.12460000
opls_145-321    C    0.66671916    0.50070994    0.80639999    -0.14770000
opls_145-322    C    0.74137006    0.71093982    0.81858004    -0.15540000
opls_145-323    C    0.42102970    0.74305984    0.78811017    -0.12460000
opls_700-324    C    0.36483964    0.46315987    0.85938996    0.12010000
opls_700-325    C    0.67840971    0.46785982    0.82080005    0.11990000
opls_700-326    C    0.72800924    0.72446990    0.83794004    0.11460000
opls_700-327    C    0.39595014    0.75605990    0.80794010    0.10680000
opls_700-328    C    0.51723922    0.44851983    0.84684999    -0.02680000
opls_148-329    C    0.15845927    0.44582985    0.88280998    -0.41510000
opls_148-330    C    0.87374919    0.45513988    0.80864009    -0.40970000
opls_700-331    C    0.55053932    0.74676989    0.83332018    -0.02920000
opls_148-332    C    0.90875911    0.71466978    0.86279017    -0.41510000
opls_148-333    C    0.20328997    0.77953981    0.80141016    -0.41180000
opls_700-334    C    0.55659960    0.39462980    0.89349010    0.03100000
opls_700-335    C    0.46870939    0.39875996    0.84278997    0.03120000
opls_700-336    C    0.54341036    0.36085979    0.90761012    -0.00230000
opls_145-337    C    0.60972075    0.40792987    0.91329013    -0.13640000
opls_700-338    C    0.49133056    0.36540992    0.85591011    0.00060000
opls_145-339    C    0.40420064    0.41639988    0.81114014    -0.17890000
opls_700-340    C    0.55194986    0.34161998    0.94079002    -0.00210000
opls_700-341    C    0.52112046    0.34651979    0.88862008    -0.00240000
opls_145-342    C    0.61984915    0.38952992    0.94496005    -0.13250000
opls_700-343    C    0.47790048    0.35109991    0.83648004    0.02910000
opls_145-344    C    0.37938004    0.40206985    0.79300004    -0.06990000
opls_700-345    C    0.52681976    0.30804985    0.95501001    -0.00100000
opls_700-346    C    0.58125922    0.35587981    0.95988002    0.07260000
opls_700-347    C    0.52597914    0.31285988    0.90259016    -0.00260000
opls_700-348    C    0.52412040    0.31757997    0.84995006    0.03020000
opls_145-349    C    0.42125967    0.36991980    0.80514015    -0.15920000
opls_700-350    C    0.51054077    0.28898985    0.98819014    0.02940000
opls_700-351    C    0.52433940    0.29382985    0.93547998    -0.00260000
opls_145-352    C    0.57536044    0.33645981    0.99268996    -0.12860000
opls_700-353    C    0.53796054    0.29875984    0.88296016    -0.00100000
opls_145-354    C    0.55868036    0.30296989    0.83142995    -0.13260000
opls_700-355    C    0.47071997    0.25483998    0.00213009    0.03190000
opls_145-356    C    0.53607018    0.30398996    0.00641993    -0.12540000
opls_700-357    C    0.52552983    0.26014994    0.94942997    -0.00190000
opls_700-358    C    0.57006048    0.26560984    0.89688002    -0.00210000
opls_145-359    C    0.60569002    0.27114981    0.84470004    -0.12840000
opls_700-360    C    0.49275090    0.24076984    0.98251013    0.00220000
opls_145-361    C    0.41087036    0.23523993    0.03410994    -0.14070000
opls_700-362    C    0.55775056    0.24619983    0.93017016    -0.00230000
opls_700-363    C    0.61002930    0.25182990    0.87744014    0.07220000
opls_700-364    C    0.47489937    0.20712987    0.99582016    0.03100000
opls_145-365    C    0.37577003    0.20252009    0.04676997    -0.06730000
opls_700-366    C    0.57619013    0.21261989    0.94412997    0.03160000
opls_145-367    C    0.65791016    0.21885981    0.89194018    -0.11980000
opls_145-368    C    0.40985043    0.18858997    0.02831012    -0.15920000
opls_145-369    C    0.64340009    0.20022981    0.92375000    -0.17160000
opls_700-370    C    0.51343994    0.41349002    0.86138996    -0.02920000
opls_700-371    C    0.52555103    0.19306985    0.97659002    -0.02840000
opls_700-372    C    0.51733001    0.75440999    0.53113996    -0.02920000
opls_700-373    C    0.50516895    0.85137993    0.31314014    -0.02850000
opls_700-374    C    0.53018970    0.86530983    0.97159996    -0.02860000
opls_700-375    C    0.53417891    0.75979996    0.85527996    -0.02840000
opls_262-376    N    0.03653965    0.52685981    0.81906001    -0.32640000
opls_262-377    N    0.14407995    0.66397992    0.82658003    -0.32640000
opls_520-378    N    0.10465979    0.63879989    0.74374006    -0.32200000
opls_520-379    N    0.10185055    0.32010988    0.42587004    -0.30590000
opls_262-380    N    0.10654948    0.24825988    0.38455002    -0.32550000
opls_262-381    N    0.18351971    0.23643994    0.53077000    -0.32890000
opls_262-382    N    0.76221024    0.88021000    0.12489992    -0.32550000
opls_262-383    N    0.64705001    0.01117007    0.14388996    -0.32540000
opls_520-384    N    0.61226969    0.99038995    0.05798004    -0.29100000
opls_520-385    N    0.60050987    0.67410985    0.73703004    -0.30600000
opls_262-386    N    0.66614912    0.60682992    0.69317002    -0.32650000
opls_262-387    N    0.55846918    0.59537979    0.84399001    -0.32650000
opls_144-388    H    0.12808025    0.55610990    0.85105014    0.14140000
opls_144-389    H    0.12664991    0.61529994    0.70942995    0.07320000
opls_144-390    H    0.12306993    0.69897986    0.75947003    0.14150000
opls_144-391    H    0.94366909    0.61131983    0.85922997    0.08080000
opls_144-392    H    0.06032995    0.69363980    0.69980016    0.12210000
opls_144-393    H    0.05117991    0.54632987    0.76318017    0.07950000
opls_146-394    H    0.71171898    0.58879978    0.90878004    0.10740000
opls_146-395    H    0.31920042    0.53959977    0.89816018    0.13740000
opls_146-396    H    0.77974947    0.74215993    0.66875012    0.11060000
opls_146-397    H    0.37942874    0.74708994    0.72049007    0.08260000
opls_146-398    H    0.37170931    0.58678981    0.68544004    0.08120000
opls_146-399    H    0.74818916    0.52546983    0.73733016    0.08050000
opls_702-400    H    0.31252971    0.47690986    0.95909011    0.11700000
opls_702-401    H    0.54171981    0.50723993    0.94367008    0.12910000
opls_702-402    H    0.41795050    0.49292977    0.98222005    0.13000000
opls_702-403    H    0.68311950    0.57672998    0.97300998    0.12460000
opls_702-404    H    0.46886922    0.55955989    0.95942014    0.13510000
opls_702-405    H    0.61412988    0.53549986    0.99439006    0.12950000
opls_702-406    H    0.75975879    0.80714990    0.61284015    0.10650000
opls_702-407    H    0.53537030    0.78672986    0.64301994    0.13090000
opls_702-408    H    0.63715967    0.82521990    0.63360993    0.12540000
opls_702-409    H    0.37942042    0.80700983    0.71941008    0.13030000
opls_702-410    H    0.59746917    0.79826989    0.69817013    0.12460000
opls_702-411    H    0.44285953    0.83380982    0.67905000    0.12450000
opls_702-412    H    0.69558010    0.47806992    0.71589006    0.12910000
opls_702-413    H    0.49133932    0.50794992    0.70847001    0.12940000
opls_702-414    H    0.61353032    0.50350992    0.67714016    0.12560000
opls_702-415    H    0.38700036    0.59511981    0.62245008    0.13030000
opls_702-416    H    0.59512005    0.57252982    0.65052010    0.12860000
opls_702-417    H    0.44167975    0.55617986    0.63039004    0.12790000
opls_146-418    H    0.13840901    0.56988999    0.97975994    0.08080000
opls_146-419    H    0.86165013    0.47317979    0.97253001    0.06480000
opls_146-420    H    0.15669876    0.59496989    0.01221999    0.08050000
opls_146-421    H    0.81155946    0.41520008    0.99825996    0.06250000
opls_146-422    H    0.88669017    0.38179986    0.05399009    0.08190000
opls_146-423    H    0.09862022    0.59131990    0.06497010    0.10640000
opls_146-424    H    0.03422007    0.35699999    0.09665006    0.08800000
opls_146-425    H    0.02159990    0.55985988    0.12159010    0.06480000
opls_146-426    H    0.09484955    0.32618995    0.15272002    0.10310000
opls_146-427    H    0.87163995    0.53351988    0.16577010    0.08190000
opls_146-428    H    0.79558961    0.49951999    0.22255009    0.07030000
opls_146-429    H    0.13185067    0.32292000    0.20513006    0.08120000
opls_146-430    H    0.84051893    0.44209999    0.24784001    0.08080000
opls_146-431    H    0.09549993    0.34760993    0.23792995    0.07030000
opls_146-432    H    0.14846995    0.47972989    0.70717000    0.07030000
opls_146-433    H    0.92940931    0.58607992    0.61785007    0.06480000
opls_146-434    H    0.15679906    0.42271986    0.72801008    0.13740000
opls_146-435    H    0.89781939    0.62048995    0.56112005    0.07790000
opls_146-436    H    0.96731011    0.60055993    0.52430008    0.07480000
opls_146-437    H    0.10312971    0.37562980    0.72044009    0.14140000
opls_146-438    H    0.11061881    0.58494982    0.49597011    0.07480000
opls_146-439    H    0.04484910    0.35310990    0.68611013    0.07480000
opls_146-440    H    0.19464989    0.56278980    0.46169013    0.10740000
opls_146-441    H    0.91157002    0.33708996    0.65831011    0.10480000
opls_146-442    H    0.85934083    0.31691993    0.62155997    0.07480000
opls_146-443    H    0.26298886    0.51580991    0.45425000    0.10320000
opls_146-444    H    0.93375973    0.35139989    0.56488999    0.09640000
opls_146-445    H    0.24020901    0.45861996    0.47526993    0.07940000
opls_146-446    H    0.63971894    0.32483998    0.31287014    0.09800000
opls_702-447    H    0.63833035    0.33981005    0.24525004    0.12910000
opls_702-448    H    0.41549023    0.34928992    0.26547002    0.13270000
opls_702-449    H    0.54958027    0.37922997    0.22938997    0.12960000
opls_146-450    H    0.27123982    0.37663000    0.31736995    0.10320000
opls_702-451    H    0.28958010    0.43915986    0.25938011    0.13050000
opls_702-452    H    0.50476048    0.41004993    0.26863012    0.12740000
opls_702-453    H    0.36908051    0.42661000    0.23208996    0.12630000
opls_144-454    H    0.84453058    0.30350997    0.36078994    0.12210000
opls_144-455    H    0.17283918    0.35280985    0.36654001    0.12210000
opls_144-456    H    0.21983004    0.21217981    0.45071012    0.12150000
opls_144-457    H    0.18937076    0.30484990    0.49933014    0.09900000
opls_144-458    H    0.87071918    0.20607996    0.50442998    0.13320000
opls_144-459    H    0.01332978    0.36144984    0.43907007    0.12510000
opls_146-460    H    0.66298968    0.15580990    0.53376007    0.09000000
opls_146-461    H    0.30428061    0.16326002    0.47676006    0.14140000
opls_146-462    H    0.39213917    0.34220993    0.50775007    0.07790000
opls_146-463    H    0.80086900    0.39710988    0.45480004    0.10710000
opls_702-464    H    0.62118079    0.08947992    0.58545003    0.14110000
opls_702-465    H    0.41431092    0.10581001    0.55554001    0.12990000
opls_702-466    H    0.55000059    0.07001990    0.56411012    0.12460000
opls_702-467    H    0.29175940    0.10274984    0.47337013    0.12910000
opls_702-468    H    0.51413046    0.11601985    0.48973002    0.12910000
opls_702-469    H    0.37278099    0.07789000    0.51229006    0.12570000
opls_702-470    H    0.39071905    0.34704982    0.56615006    0.12840000
opls_702-471    H    0.61935074    0.36266984    0.53586003    0.13270000
opls_702-472    H    0.48814938    0.38727987    0.54894000    0.12560000
opls_702-473    H    0.80156969    0.45453998    0.46194005    0.12890000
opls_702-474    H    0.56758956    0.42481997    0.47706999    0.12710000
opls_702-475    H    0.70282942    0.43680004    0.50188999    0.12630000
opls_146-476    H    0.07038971    0.08110990    0.58515995    0.07030000
opls_146-477    H    0.83016037    0.09210989    0.48203997    0.10250000
opls_146-478    H    0.11672952    0.04709005    0.64107997    0.10320000
opls_146-479    H    0.75345990    0.06745992    0.44953998    0.07030000
opls_146-480    H    0.80065081    0.01068001    0.46991994    0.10480000
opls_146-481    H    0.10741891    0.99302977    0.68804006    0.08120000
opls_146-482    H    0.91562000    0.96714986    0.48470002    0.08800000
opls_146-483    H    0.06651897    0.93565982    0.71141009    0.07480000
opls_146-484    H    0.00372996    0.91158999    0.50596005    0.10710000
opls_146-485    H    0.95113969    0.89018986    0.72953011    0.10480000
opls_146-486    H    0.89907962    0.83274989    0.75041014    0.10560000
opls_146-487    H    0.12532023    0.86024990    0.55086012    0.08080000
opls_146-488    H    0.92690965    0.80961993    0.71602996    0.07030000
opls_146-489    H    0.17726881    0.82682992    0.60702000    0.09900000
opls_144-490    H    0.81657002    0.91261991    0.16344008    0.12220000
opls_144-491    H    0.71061969    0.96350987    0.02396002    0.12210000
opls_144-492    H    0.65836976    0.04769013    0.07730991    0.09900000
opls_144-493    H    0.37589951    0.94757994    0.17040001    0.12490000
opls_144-494    H    0.46752012    0.04618002    0.01943007    0.13220000
opls_144-495    H    0.42197843    0.90478996    0.07650996    0.13180000
opls_146-496    H    0.20900905    0.93136985    0.22043004    0.14140000
opls_146-497    H    0.82667864    0.88202998    0.21233990    0.10640000
opls_146-498    H    0.23265978    0.09558001    0.98987997    0.14140000
opls_146-499    H    0.83338080    0.09522003    0.04437992    0.07030000
opls_146-500    H    0.85486924    0.93214006    0.00559990    0.08050000
opls_146-501    H    0.20669998    0.87558004    0.05579997    0.10310000
opls_702-502    H    0.79918983    0.81922999    0.27452010    0.12910000
opls_702-503    H    0.03469918    0.84874986    0.25807005    0.12790000
opls_702-504    H    0.91171913    0.83637996    0.29632013    0.12580000
opls_702-505    H    0.18083959    0.92101997    0.28425008    0.14110000
opls_702-506    H    0.96509964    0.90331990    0.27136000    0.12740000
opls_702-507    H    0.11186902    0.87986002    0.30641003    0.13030000
opls_702-508    H    0.23332108    0.16321989    0.93558998    0.12950000
opls_702-509    H    0.00215961    0.14285996    0.96497005    0.12920000
opls_702-510    H    0.12015953    0.17997992    0.95802997    0.12970000
opls_702-511    H    0.83945077    0.15443996    0.04589995    0.13020000
opls_702-512    H    0.06234936    0.14581991    0.02501011    0.13160000
opls_702-513    H    0.91497967    0.18194998    0.00607006    0.12750000
opls_702-514    H    0.18834008    0.82181008    0.04269991    0.13030000
opls_702-515    H    0.97527872    0.85150001    0.03031012    0.13270000
opls_702-516    H    0.11764969    0.84266989    0.00285997    0.12630000
opls_702-517    H    0.88014927    0.93344984    0.94376000    0.13020000
opls_702-518    H    0.08604959    0.91583988    0.97363009    0.13090000
opls_702-519    H    0.95143992    0.89356976    0.95802016    0.12900000
opls_146-520    H    0.63356870    0.91373990    0.29150991    0.09640000
opls_146-521    H    0.34321999    0.81699989    0.28641007    0.07480000
opls_146-522    H    0.69923960    0.93899997    0.32314993    0.10320000
opls_146-523    H    0.26669029    0.75930999    0.31308011    0.07480000
opls_146-524    H    0.33804953    0.72605999    0.36894991    0.08190000
opls_146-525    H    0.70309907    0.93564979    0.37576013    0.10310000
opls_146-526    H    0.48155926    0.70056981    0.41129013    0.08800000
opls_146-527    H    0.65277952    0.90493983    0.43276014    0.08800000
opls_146-528    H    0.55353935    0.66977996    0.46702003    0.10710000
opls_146-529    H    0.52024887    0.88036976    0.47770015    0.09640000
opls_146-530    H    0.42686919    0.84743980    0.53415012    0.10480000
opls_146-531    H    0.62586963    0.66698975    0.51869014    0.09800000
opls_146-532    H    0.39912953    0.78942982    0.55943000    0.10640000
opls_146-533    H    0.62348908    0.69253993    0.55089001    0.07960000
opls_146-534    H    0.64078906    0.82054003    0.03083003    0.07960000
opls_146-535    H    0.42339982    0.92776995    0.94333001    0.06250000
opls_146-536    H    0.65486011    0.76374998    0.05042990    0.08120000
opls_146-537    H    0.38050023    0.96297981    0.88705008    0.06250000
opls_146-538    H    0.43631874    0.94397979    0.84925008    0.10250000
opls_146-539    H    0.60015920    0.71728009    0.04166990    0.08050000
opls_146-540    H    0.57084978    0.92933998    0.81998002    0.08800000
opls_146-541    H    0.53284062    0.69577991    0.00671002    0.12190000
opls_146-542    H    0.64373984    0.90825989    0.78451004    0.13740000
opls_146-543    H    0.39386923    0.68031982    0.97859002    0.12190000
opls_146-544    H    0.33292993    0.66122994    0.94117003    0.07940000
opls_146-545    H    0.70728002    0.86218976    0.77582011    0.06490000
opls_146-546    H    0.39433886    0.69675988    0.88445006    0.08800000
opls_146-547    H    0.69232948    0.80496995    0.79600996    0.07940000
opls_146-548    H    0.15277029    0.67349989    0.62479995    0.09800000
opls_702-549    H    0.16403975    0.68451980    0.55977006    0.12910000
opls_702-550    H    0.94310978    0.69892997    0.57566002    0.12600000
opls_702-551    H    0.09985025    0.72506005    0.53967994    0.12750000
opls_146-552    H    0.78864042    0.72371976    0.63074015    0.07960000
opls_702-553    H    0.83143871    0.78543987    0.57119010    0.12910000
opls_702-554    H    0.03888987    0.75519983    0.58379010    0.13270000
opls_702-555    H    0.92375968    0.77057997    0.54616995    0.12870000
opls_144-556    H    0.34234973    0.65322979    0.67414005    0.07330000
opls_144-557    H    0.66316032    0.70446991    0.67722004    0.07460000
opls_144-558    H    0.58875055    0.56522986    0.76047995    0.10690000
opls_144-559    H    0.62886049    0.65797988    0.81205010    0.08120000
opls_144-560    H    0.53826909    0.55614991    0.82740007    0.07210000
opls_144-561    H    0.58390011    0.71908991    0.74888007    0.10680000
opls_146-562    H    0.30139932    0.50585985    0.86106017    0.09800000
opls_146-563    H    0.77876052    0.51506994    0.78485010    0.07160000
opls_146-564    H    0.88058003    0.69371975    0.82270009    0.10740000
opls_146-565    H    0.29837873    0.75011989    0.76885013    0.08120000
opls_702-566    H    0.17541910    0.44697984    0.90447011    0.12600000
opls_702-567    H    0.98695043    0.45668988    0.87290016    0.10700000
opls_702-568    H    0.13838986    0.42093989    0.88910006    0.13070000
opls_702-569    H    0.84992023    0.46121998    0.78418001    0.12920000
opls_702-570    H    0.05189934    0.46549982    0.80919013    0.10690000
opls_702-571    H    0.88484959    0.42947993    0.82253005    0.12920000
opls_702-572    H    0.85674969    0.69156977    0.88323016    0.12910000
opls_702-573    H    0.08712034    0.71211987    0.85385009    0.12710000
opls_702-574    H    0.93299045    0.73163993    0.87117997    0.12610000
opls_702-575    H    0.26582975    0.80331999    0.78288000    0.14010000
opls_702-576    H    0.03946026    0.77329987    0.79319997    0.13110000
opls_702-577    H    0.14804925    0.78139979    0.82209002    0.12570000
opls_146-578    H    0.63952943    0.43361984    0.90278005    0.08120000
opls_146-579    H    0.37490074    0.44175999    0.80073002    0.07480000
opls_146-580    H    0.65674999    0.40058990    0.95935007    0.10740000
opls_146-581    H    0.32956947    0.41614988    0.76861003    0.08800000
opls_146-582    H    0.40379983    0.35978980    0.78961011    0.09640000
opls_146-583    H    0.59949998    0.34719991    0.00763002    0.14150000
opls_146-584    H    0.55434020    0.31685985    0.80584014    0.08800000
opls_146-585    H    0.53041039    0.28999002    0.03208005    0.08080000
opls_146-586    H    0.63703014    0.26084975    0.82942015    0.10310000
opls_146-587    H    0.38596934    0.24515992    0.04978993    0.08190000
opls_146-588    H    0.32365994    0.18775003    0.07177004    0.07030000
opls_146-589    H    0.70600997    0.20853000    0.87707999    0.10640000
opls_146-590    H    0.38531044    0.16281994    0.03913995    0.06250000
opls_146-591    H    0.68211044    0.17512988    0.93399008    0.07030000
