#======================================================================
# Crystal Data Generated By AuToFF
#----------------------------------------------------------------------

data_AuToFF_phase_1

_cell_length_a                         49.4657
_cell_length_b                         49.3679
_cell_length_c                         10.8061
_cell_angle_alpha                      89.47
_cell_angle_beta                       89.67
_cell_angle_gamma                      59.31
_symmetry_space_group_name_H-M_alt     'P 1'
_symmetry_space_group_IT_number        1

loop_
_space_group_symop_operation_xyz
   'x, y, z'

loop_
   _atom_site_label
   _atom_site_type_symbol
   _atom_site_fract_x
   _atom_site_fract_y
   _atom_site_fract_z
   _atom_site_charge
opls_700-0    C    0.61165001    0.59184991    0.91546999    0.03190000
opls_700-1    C    0.64454993    0.57283998    0.93287018    -0.04800000
opls_521-2    C    0.66342998    0.58705996    0.93377064    0.22430000
opls_521-3    C    0.61939000    0.63733985    0.90618039    0.19020000
opls_700-4    C    0.59925004    0.62462992    0.89795042    -0.04830000
opls_423-5    C    0.56637009    0.64440977    0.86789016    0.24410000
opls_423-6    C    0.65972013    0.53900986    0.94329067    0.24770000
opls_142-7    C    0.59053004    0.57912997    0.91124071    -0.11080000
opls_142-8    C    0.60781008    0.67126985    0.89347035    -0.13430000
opls_142-9    C    0.69768008    0.56740993    0.94348039    -0.13330000
opls_142-10    C    0.59310021    0.55571980    0.98640061    -0.13170000
opls_142-11    C    0.71684998    0.57821988    0.97739049    -0.11230000
opls_142-12    C    0.58002009    0.69419987    0.94033018    -0.13170000
opls_700-13    C    0.57269004    0.54229977    0.98473018    0.09910000
opls_145-14    C    0.57762011    0.51907992    0.07323034    -0.14140000
opls_145-15    C    0.54861004    0.55088995    0.89714066    -0.14730000
opls_700-16    C    0.55945995    0.50466005    0.07533018    0.12220000
opls_700-17    C    0.53004009    0.53692997    0.89703053    0.12210000
opls_700-18    C    0.53518020    0.51342983    0.98654035    -0.02870000
opls_700-19    C    0.75122006    0.55810989    0.98058049    0.09820000
opls_145-20    C    0.76930007    0.56312003    0.06750000    -0.14460000
opls_145-21    C    0.76713012    0.53337981    0.89572010    -0.15110000
opls_700-22    C    0.80213014    0.54358988    0.07289996    0.12410000
opls_700-23    C    0.79992001    0.51390980    0.89714066    0.11360000
opls_700-24    C    0.81804000    0.51856990    0.98699012    -0.02800000
opls_700-25    C    0.56713013    0.72821979    0.92981066    0.09940000
opls_145-26    C    0.57663016    0.74225994    0.83866003    -0.13840000
opls_145-27    C    0.54327013    0.74815999    0.01273966    -0.14730000
opls_700-28    C    0.56311017    0.77504978    0.83070029    0.11880000
opls_700-29    C    0.52966008    0.78096999    0.00825958    0.11310000
opls_700-30    C    0.53948008    0.79500994    0.91658052    -0.02840000
opls_148-31    C    0.50536002    0.54755999    0.79828016    -0.41950000
opls_148-32    C    0.56675017    0.48033993    0.17438039    -0.41950000
opls_148-33    C    0.81909003    0.55013996    0.17244992    -0.41950000
opls_148-34    C    0.81435017    0.48894979    0.79972015    -0.41770000
opls_148-35    C    0.50524015    0.79974998    0.10421049    -0.42160000
opls_148-36    C    0.57436018    0.78771988    0.72841010    -0.41950000
opls_700-37    C    0.52897015    0.46568980    0.96603067    0.03110000
opls_700-38    C    0.48200008    0.51731988    0.00830956    0.03080000
opls_700-39    C    0.50996996    0.45128994    0.97308995    0.00030000
opls_145-40    C    0.56199007    0.44546999    0.93876063    -0.16860000
opls_700-41    C    0.46250008    0.50358990    0.00001018    0.00250000
opls_145-42    C    0.46723006    0.54991987    0.03757023    -0.13760000
opls_700-43    C    0.52438015    0.41770981    0.96721061    -0.00080000
opls_700-44    C    0.47680006    0.47030981    0.98628030    -0.00200000
opls_145-45    C    0.57563008    0.41347984    0.93071019    -0.13000000
opls_700-46    C    0.42890996    0.52304999    0.00877043    0.03150000
opls_145-47    C    0.43491993    0.56819005    0.05173969    -0.04980000
opls_700-48    C    0.50577995    0.40321995    0.98152074    -0.00100000
opls_700-49    C    0.55751006    0.39846996    0.94905063    0.07160000
opls_700-50    C    0.45781017    0.45591979    0.98727052    -0.00200000
opls_700-51    C    0.40950012    0.50884984    0.99095009    0.02870000
opls_145-52    C    0.41573000    0.55518993    0.03511966    -0.14230000
opls_700-53    C    0.52050007    0.36973998    0.98730014    0.02880000
opls_700-54    C    0.47219009    0.42267983    0.98759998    -0.00200000
opls_145-55    C    0.57139995    0.36536000    0.94799008    -0.13000000
opls_700-56    C    0.42419016    0.47538977    0.98574077    -0.00130000
opls_145-57    C    0.37642012    0.52719986    0.97781064    -0.12980000
opls_700-58    C    0.50127996    0.35551008    0.01132002    0.03200000
opls_145-59    C    0.55341994    0.35142994    0.96884032    -0.12990000
opls_700-60    C    0.45321997    0.40826996    0.99167008    -0.00200000
opls_700-61    C    0.40551016    0.46090988    0.97638083    -0.00110000
opls_145-62    C    0.35830006    0.51332992    0.96191060    -0.12960000
opls_700-63    C    0.46763014    0.37496994    0.00672983    0.00070000
opls_145-64    C    0.51467994    0.32335998    0.04011983    -0.12110000
opls_700-65    C    0.41996009    0.42730981    0.98265071    0.00020000
opls_700-66    C    0.37224002    0.48020985    0.96274997    0.06960000
opls_700-67    C    0.44820994    0.36123006    0.02080027    0.02960000
opls_145-68    C    0.49560996    0.31041008    0.06336974    -0.07070000
opls_700-69    C    0.40096019    0.41286976    0.97987993    0.03430000
opls_145-70    C    0.35406011    0.46520990    0.94803080    -0.12990000
opls_145-71    C    0.46320005    0.32866000    0.05289002    -0.13330000
opls_145-72    C    0.36780010    0.43316987    0.95558056    -0.16860000
opls_700-73    C    0.49286001    0.85054997    0.89087078    0.03110000
opls_700-74    C    0.54515010    0.84327992    0.93114053    0.03080000
opls_700-75    C    0.47937008    0.88415993    0.89654004    -0.00040000
opls_145-76    C    0.47184019    0.83903987    0.86578015    -0.11240000
opls_700-77    C    0.53235016    0.87665983    0.91987047    0.00250000
opls_145-78    C    0.57761015    0.82406990    0.96156078    -0.13760000
opls_700-79    C    0.44593014    0.90475985    0.89246994    -0.00070000
opls_700-80    C    0.49918016    0.89706979    0.90733997    -0.00260000
opls_145-81    C    0.43999012    0.85875984    0.85862000    -0.13000000
opls_700-82    C    0.55260015    0.88954984    0.92537039    0.03200000
opls_145-83    C    0.59669019    0.83691975    0.97195073    -0.07070000
opls_700-84    C    0.43238010    0.93800978    0.90722059    -0.00080000
opls_700-85    C    0.42590998    0.89210993    0.87639036    0.06870000
opls_700-86    C    0.48567023    0.93066974    0.90838017    -0.00210000
opls_700-87    C    0.53918017    0.92341990    0.90624054    0.02880000
opls_145-88    C    0.58464025    0.86921980    0.95120044    -0.12100000
opls_700-89    C    0.39910008    0.95811982    0.91556068    0.02990000
opls_700-90    C    0.45260018    0.95089976    0.91159053    -0.00210000
opls_145-91    C    0.39297024    0.91271975    0.87727046    -0.12950000
opls_700-92    C    0.50585017    0.94362975    0.90458030    -0.00230000
opls_145-93    C    0.55815016    0.93704984    0.88960014    -0.13000000
opls_700-94    C    0.38591018    0.99163978    0.94094005    0.03170000
opls_145-95    C    0.37999002    0.94473996    0.89858065    -0.12990000
opls_700-96    C    0.43912021    0.98445982    0.91750041    -0.00260000
opls_700-97    C    0.49220017    0.97706995    0.89699999    -0.00070000
opls_145-98    C    0.54499004    0.96937997    0.87524004    -0.12970000
opls_700-99    C    0.40609000    0.00461999    0.93565021    0.00250000
opls_145-100    C    0.35409994    0.01155987    0.97182025    -0.08770000
opls_700-101    C    0.45884018    0.99753983    0.90742048    -0.00040000
opls_700-102    C    0.51209013    0.98996978    0.88132020    0.07160000
opls_700-103    C    0.39335995    0.03783988    0.95161041    0.03110000
opls_145-104    C    0.34217004    0.04357984    0.99669061    -0.07060000
opls_700-105    C    0.44533996    0.03118983    0.90763056    0.03070000
opls_145-106    C    0.49789993    0.02355994    0.87074053    -0.13000000
opls_145-107    C    0.36111996    0.05661989    0.98593048    -0.13330000
opls_145-108    C    0.46614004    0.04309993    0.88341078    -0.11240000
opls_700-109    C    0.39506002    0.36490004    0.00563040    -0.02860000
opls_700-110    C    0.37087001    0.37372991    0.09546042    0.12170000
opls_700-111    C    0.40014015    0.34125981    0.91851007    0.11860000
opls_145-112    C    0.35260013    0.35941998    0.09607029    -0.15070000
opls_148-113    C    0.36374000    0.39801991    0.19280967    -0.41940000
opls_145-114    C    0.38164000    0.32721989    0.92213041    -0.14510000
opls_148-115    C    0.42461997    0.33064995    0.81848074    -0.41960000
opls_700-116    C    0.35752011    0.33597998    0.01033998    0.09910000
opls_142-117    C    0.33655001    0.32318000    0.01307004    -0.13260000
opls_142-118    C    0.34085007    0.29731000    0.95214069    -0.13440000
opls_521-119    C    0.31827004    0.28626986    0.95092003    0.18710000
opls_700-120    C    0.28503016    0.30711987    0.95171036    -0.04830000
opls_700-121    C    0.26467996    0.29476988    0.95070995    0.03430000
opls_423-122    C    0.27117008    0.34088982    0.94884056    0.24890000
opls_521-123    C    0.31213007    0.24237984    0.93693010    0.22420000
opls_700-124    C    0.27873991    0.26169000    0.94194045    -0.04620000
opls_142-125    C    0.23044018    0.31616979    0.95334006    -0.11110000
opls_142-126    C    0.32678002    0.20820982    0.92435055    -0.13330000
opls_423-127    C    0.25975001    0.24729998    0.93137004    0.24590000
opls_142-128    C    0.21023004    0.31089990    0.02024037    -0.13170000
opls_142-129    C    0.35725997    0.18738997    0.95252012    -0.13260000
opls_700-130    C    0.17602006    0.33157992    0.02086042    0.09910000
opls_700-131    C    0.37156014    0.15311987    0.94387000    0.09920000
opls_145-132    C    0.15783008    0.32678999    0.10940963    -0.15070000
opls_145-133    C    0.16016005    0.35588993    0.93298031    -0.14660000
opls_145-134    C    0.36186007    0.13904981    0.85537077    -0.15160000
opls_145-135    C    0.39550004    0.13326993    0.02697020    -0.15160000
opls_700-136    C    0.12492007    0.34558002    0.11177044    0.12150000
opls_700-137    C    0.12735014    0.37496987    0.93283039    0.11880000
opls_700-138    C    0.37522008    0.10628983    0.85002078    0.12140000
opls_700-139    C    0.40875992    0.10046000    0.02581987    0.12230000
opls_700-140    C    0.10907991    0.37012008    0.02278997    -0.03210000
opls_148-141    C    0.10781995    0.33874003    0.21115011    -0.41900000
opls_148-142    C    0.11295004    0.39979983    0.83359045    -0.41960000
opls_700-143    C    0.39878006    0.08638998    0.93667005    -0.03210000
opls_148-144    C    0.36375994    0.09362991    0.75015062    -0.41950000
opls_148-145    C    0.43289002    0.08172008    0.12309972    -0.42170000
opls_700-146    C    0.05462007    0.37764979    0.99899034    0.03080000
opls_700-147    C    0.05949009    0.42399003    0.04015962    0.03080000
opls_700-148    C    0.02091015    0.39755991    0.00031002    -0.00050000
opls_145-149    C    0.06747995    0.34455997    0.97500007    -0.11230000
opls_700-150    C    0.02613002    0.44427996    0.02580044    0.00390000
opls_145-151    C    0.07750992    0.43803005    0.07168023    -0.08770000
opls_700-152    C    0.00133995    0.38400990    0.99214021    -0.00100000
opls_700-153    C    0.00686012    0.43077996    0.00919983    -0.00260000
opls_145-154    C    0.04879013    0.33167989    0.96605011    -0.12990000
opls_700-155    C    0.01215007    0.47789008    0.03074971    0.03200000
opls_145-156    C    0.06351004    0.47037998    0.08336025    -0.10070000
opls_700-157    C    0.96785011    0.40360978    0.99893019    -0.00080000
opls_700-158    C    0.01522010    0.35078000    0.97878051    0.06960000
opls_700-159    C    0.97325009    0.45066989    0.00260975    -0.00210000
opls_700-160    C    0.97857001    0.49806003    0.00475030    0.02880000
opls_145-161    C    0.03125001    0.49031990    0.06073038    -0.14230000
opls_700-162    C    0.94854021    0.38986986    0.00183978    0.02870000
opls_700-163    C    0.95391993    0.43720995    0.99985008    -0.00200000
opls_145-164    C    0.99556012    0.33776992    0.97617076    -0.12970000
opls_700-165    C    0.95941012    0.48422987    0.99598080    -0.00110000
opls_145-166    C    0.96430009    0.53098994    0.98629048    -0.12990000
opls_700-167    C    0.91449993    0.41024007    0.01647012    0.03170000
opls_145-168    C    0.96317994    0.35677994    0.98959061    -0.12990000
opls_700-169    C    0.92028008    0.45712991    0.99548013    -0.00260000
opls_700-170    C    0.92621015    0.50370985    0.97775049    -0.00070000
opls_145-171    C    0.93236012    0.54979977    0.96145065    -0.12950000
opls_700-172    C    0.90067010    0.44380003    0.00692972    0.00250000
opls_145-173    C    0.89480997    0.39800998    0.04036970    -0.14230000
opls_700-174    C    0.90651997    0.49022995    0.98080075    -0.00010000
opls_700-175    C    0.91270009    0.53678987    0.95849016    0.06960000
opls_700-176    C    0.86712013    0.46424986    0.01241020    0.03010000
opls_145-177    C    0.86223994    0.41811999    0.05419027    -0.04980000
opls_700-178    C    0.87293011    0.51012981    0.96974077    0.03070000
opls_145-179    C    0.87953999    0.55569994    0.93460076    -0.12990000
opls_145-180    C    0.84854992    0.45042006    0.03965988    -0.13760000
opls_145-181    C    0.86067015    0.54292979    0.93954078    -0.16160000
opls_700-182    C    0.07390004    0.39059991    0.02148972    -0.02910000
opls_700-183    C    0.85317011    0.49752988    0.98984048    -0.02890000
opls_700-184    C    0.41477007    0.38009009    0.00204986    -0.02890000
opls_700-185    C    0.51532012    0.49839985    0.98687999    -0.02890000
opls_700-186    C    0.52544020    0.83008985    0.91190056    -0.02910000
opls_700-187    C    0.41290002    0.05131002    0.93235008    -0.02910000
opls_700-188    C    0.61164995    0.59185003    0.41547045    0.03190000
opls_700-189    C    0.64455019    0.57283987    0.43286972    -0.04800000
opls_521-190    C    0.66343004    0.58705984    0.43377017    0.22430000
opls_521-191    C    0.61939015    0.63733997    0.40617993    0.19020000
opls_700-192    C    0.59924998    0.62463003    0.39794996    -0.04830000
opls_423-193    C    0.56637003    0.64440989    0.36788970    0.24410000
opls_423-194    C    0.65972007    0.53900998    0.44329021    0.24770000
opls_142-195    C    0.59053010    0.57912985    0.41124025    -0.11080000
opls_142-196    C    0.60781002    0.67126997    0.39346989    -0.13440000
opls_142-197    C    0.69768014    0.56740982    0.44347993    -0.13340000
opls_142-198    C    0.59310015    0.55571992    0.48640015    -0.13170000
opls_142-199    C    0.71685012    0.57822000    0.47739003    -0.11230000
opls_142-200    C    0.58002003    0.69419999    0.44032972    -0.13170000
opls_700-201    C    0.57269018    0.54229988    0.48473065    0.09910000
opls_145-202    C    0.57762017    0.51907980    0.57322988    -0.14140000
opls_145-203    C    0.54861010    0.55088983    0.39714019    -0.14730000
opls_700-204    C    0.55946001    0.50465993    0.57533064    0.12220000
opls_700-205    C    0.53004015    0.53692985    0.39703007    0.12210000
opls_700-206    C    0.53518014    0.51342995    0.48653989    -0.02870000
opls_700-207    C    0.75122000    0.55811001    0.48058003    0.09820000
opls_145-208    C    0.76930013    0.56311992    0.56750046    -0.14460000
opls_145-209    C    0.76713006    0.53337993    0.39572056    -0.15110000
opls_700-210    C    0.80213008    0.54359000    0.57290042    0.12410000
opls_700-211    C    0.79992016    0.51390992    0.39714019    0.11360000
opls_700-212    C    0.81803994    0.51857002    0.48699058    -0.02800000
opls_700-213    C    0.56713007    0.72821991    0.42981020    0.09940000
opls_145-214    C    0.57663022    0.74225982    0.33866049    -0.13840000
opls_145-215    C    0.54327019    0.74815987    0.51274012    -0.14730000
opls_700-216    C    0.56311011    0.77504990    0.33069983    0.11880000
opls_700-217    C    0.52966014    0.78096987    0.50826005    0.11310000
opls_700-218    C    0.53948014    0.79500982    0.41658006    -0.02840000
opls_148-219    C    0.50536008    0.54755987    0.29827969    -0.41950000
opls_148-220    C    0.56675003    0.48033981    0.67437993    -0.41960000
opls_148-221    C    0.81909009    0.55013985    0.67245038    -0.41950000
opls_148-222    C    0.81435011    0.48894991    0.29971968    -0.41760000
opls_148-223    C    0.50524021    0.79974986    0.60421003    -0.42170000
opls_148-224    C    0.57436012    0.78772000    0.22840963    -0.41950000
opls_700-225    C    0.52897009    0.46568992    0.46603021    0.03110000
opls_700-226    C    0.48200002    0.51731999    0.50831002    0.03080000
opls_700-227    C    0.50997002    0.45128982    0.47309042    0.00030000
opls_145-228    C    0.56199013    0.44546987    0.43876016    -0.16860000
opls_700-229    C    0.46250002    0.50359002    0.50001064    0.00250000
opls_145-230    C    0.46723000    0.54991999    0.53756977    -0.13760000
opls_700-231    C    0.52438009    0.41770992    0.46721015    -0.00080000
opls_700-232    C    0.47680000    0.47030993    0.48627984    -0.00200000
opls_145-233    C    0.57563002    0.41347996    0.43070973    -0.13000000
opls_700-234    C    0.42891002    0.52304987    0.50876997    0.03150000
opls_145-235    C    0.43491999    0.56818993    0.55174016    -0.04980000
opls_700-236    C    0.50578001    0.40321983    0.48152028    -0.00100000
opls_700-237    C    0.55751012    0.39846984    0.44905017    0.07160000
opls_700-238    C    0.45781011    0.45591991    0.48727006    -0.00200000
opls_700-239    C    0.40950006    0.50884995    0.49095055    0.02870000
opls_145-240    C    0.41573006    0.55518981    0.53512012    -0.14230000
opls_700-241    C    0.52050013    0.36973986    0.48730060    0.02880000
opls_700-242    C    0.47219003    0.42267994    0.48760045    -0.00200000
opls_145-243    C    0.57140001    0.36535988    0.44799054    -0.13000000
opls_700-244    C    0.42419010    0.47538989    0.48574030    -0.00130000
opls_145-245    C    0.37642006    0.52719997    0.47781018    -0.12980000
opls_700-246    C    0.50128002    0.35550996    0.51132049    0.03210000
opls_145-247    C    0.55342021    0.35142982    0.46883985    -0.12990000
opls_700-248    C    0.45322003    0.40826985    0.49167055    -0.00200000
opls_700-249    C    0.40551010    0.46091000    0.47638037    -0.00110000
opls_145-250    C    0.35830000    0.51333004    0.46191013    -0.12970000
opls_700-251    C    0.46763020    0.37496983    0.50673029    0.00070000
opls_145-252    C    0.51468000    0.32335987    0.54012029    -0.12110000
opls_700-253    C    0.41996003    0.42730993    0.48265025    0.00020000
opls_700-254    C    0.37223996    0.48020996    0.46275044    0.06960000
opls_700-255    C    0.44821000    0.36122994    0.52079981    0.02960000
opls_145-256    C    0.49561002    0.31040996    0.56337021    -0.07070000
opls_700-257    C    0.40096013    0.41286988    0.47988040    0.03440000
opls_145-258    C    0.35406005    0.46521002    0.44803033    -0.12990000
opls_145-259    C    0.46320011    0.32865988    0.55289048    -0.13330000
opls_145-260    C    0.36780005    0.43316999    0.45558010    -0.16860000
opls_700-261    C    0.49286007    0.85054985    0.39087031    0.03110000
opls_700-262    C    0.54515016    0.84327980    0.43114006    0.03080000
opls_700-263    C    0.47937014    0.88415982    0.39654051    -0.00040000
opls_145-264    C    0.47184013    0.83903998    0.36577969    -0.11240000
opls_700-265    C    0.53235010    0.87665995    0.41987001    0.00250000
opls_145-266    C    0.57761009    0.82407002    0.46156032    -0.13760000
opls_700-267    C    0.44593008    0.90475997    0.39247041    -0.00070000
opls_700-268    C    0.49918010    0.89706991    0.40734043    -0.00260000
opls_145-269    C    0.43999006    0.85875995    0.35862046    -0.12980000
opls_700-270    C    0.55260009    0.88954996    0.42536992    0.03200000
opls_145-271    C    0.59669013    0.83691986    0.47195027    -0.07070000
opls_700-272    C    0.43238004    0.93800990    0.40722013    -0.00080000
opls_700-273    C    0.42591025    0.89210982    0.37638990    0.06870000
opls_700-274    C    0.48567017    0.93066985    0.40837971    -0.00210000
opls_700-275    C    0.53918011    0.92342002    0.40624008    0.02880000
opls_145-276    C    0.58464019    0.86921992    0.45119998    -0.12110000
opls_700-277    C    0.39910002    0.95811994    0.41556022    0.02990000
opls_700-278    C    0.45260012    0.95089988    0.41159007    -0.00210000
opls_145-279    C    0.39297018    0.91271987    0.37727000    -0.12950000
opls_700-280    C    0.50585011    0.94362987    0.40457983    -0.00230000
opls_145-281    C    0.55815010    0.93704995    0.38960061    -0.13000000
opls_700-282    C    0.38591012    0.99163990    0.44094051    0.03170000
opls_145-283    C    0.37999008    0.94473984    0.39858018    -0.12990000
opls_700-284    C    0.43912015    0.98445994    0.41749995    -0.00260000
opls_700-285    C    0.49220023    0.97706983    0.39700045    -0.00070000
opls_145-286    C    0.54499010    0.96937985    0.37524050    -0.12970000
opls_700-287    C    0.40609006    0.00461987    0.43564975    0.00250000
opls_145-288    C    0.35410008    0.01155999    0.47181978    -0.08770000
opls_700-289    C    0.45884012    0.99753995    0.40742002    -0.00040000
opls_700-290    C    0.51209007    0.98996990    0.38131974    0.07160000
opls_700-291    C    0.39335989    0.03784000    0.45160995    0.03110000
opls_145-292    C    0.34216998    0.04357995    0.49669015    -0.07050000
opls_700-293    C    0.44534010    0.03118995    0.40763010    0.03070000
opls_145-294    C    0.49789987    0.02356006    0.37074007    -0.13000000
opls_145-295    C    0.36111990    0.05662000    0.48593002    -0.13330000
opls_145-296    C    0.46613998    0.04310005    0.38341031    -0.11230000
opls_700-297    C    0.39506008    0.36489993    0.50562994    -0.02860000
opls_700-298    C    0.37086995    0.37373003    0.59545996    0.12170000
opls_700-299    C    0.40014009    0.34125993    0.41851054    0.11860000
opls_145-300    C    0.35259999    0.35941986    0.59606983    -0.15070000
opls_148-301    C    0.36373994    0.39802002    0.69281014    -0.41940000
opls_145-302    C    0.38163994    0.32722001    0.42212995    -0.14510000
opls_148-303    C    0.42462003    0.33064983    0.31848027    -0.41960000
opls_700-304    C    0.35752017    0.33597986    0.51034044    0.09910000
opls_142-305    C    0.33655007    0.32317988    0.51307050    -0.13260000
opls_142-306    C    0.34085013    0.29730989    0.45214023    -0.13440000
opls_521-307    C    0.31826998    0.28626997    0.45092049    0.18710000
opls_700-308    C    0.28503010    0.30711998    0.45170990    -0.04830000
opls_700-309    C    0.26468010    0.29477000    0.45071042    0.03430000
opls_423-310    C    0.27117002    0.34088994    0.44884010    0.24890000
opls_521-311    C    0.31213001    0.24237995    0.43693056    0.22420000
opls_700-312    C    0.27873997    0.26168988    0.44193999    -0.04620000
opls_142-313    C    0.23044012    0.31616991    0.45334053    -0.11110000
opls_142-314    C    0.32677996    0.20820994    0.42435008    -0.13330000
opls_423-315    C    0.25975007    0.24729986    0.43137050    0.24590000
opls_142-316    C    0.21022998    0.31090002    0.52023991    -0.13170000
opls_142-317    C    0.35726003    0.18738986    0.45252058    -0.13260000
opls_700-318    C    0.17602000    0.33158004    0.52085996    0.09910000
opls_700-319    C    0.37156008    0.15311998    0.44387046    0.09920000
opls_145-320    C    0.15783014    0.32678987    0.60941009    -0.15070000
opls_145-321    C    0.16015999    0.35589005    0.43297984    -0.14650000
opls_145-322    C    0.36186001    0.13904993    0.35537030    -0.15160000
opls_145-323    C    0.39549998    0.13327005    0.52697066    -0.15160000
opls_700-324    C    0.12492013    0.34557990    0.61176998    0.12150000
opls_700-325    C    0.12735008    0.37496998    0.43282992    0.11890000
opls_700-326    C    0.37522002    0.10628995    0.35002031    0.12140000
opls_700-327    C    0.40875998    0.10045988    0.52582034    0.12230000
opls_700-328    C    0.10907997    0.37011996    0.52279043    -0.03210000
opls_148-329    C    0.10782001    0.33873991    0.71115058    -0.41900000
opls_148-330    C    0.11294998    0.39979995    0.33358999    -0.41950000
opls_700-331    C    0.39878012    0.08638986    0.43667051    -0.03210000
opls_148-332    C    0.36376008    0.09363002    0.25015015    -0.41940000
opls_148-333    C    0.43289008    0.08171996    0.62310018    -0.42170000
opls_700-334    C    0.05462001    0.37764991    0.49898988    0.03080000
opls_700-335    C    0.05949015    0.42398991    0.54016008    0.03080000
opls_700-336    C    0.02091009    0.39756003    0.50031049    -0.00050000
opls_145-337    C    0.06748001    0.34455985    0.47500053    -0.11240000
opls_700-338    C    0.02613008    0.44427984    0.52579998    0.00390000
opls_145-339    C    0.07750998    0.43802993    0.57167976    -0.08770000
opls_700-340    C    0.00134010    0.38401001    0.49213975    -0.00100000
opls_700-341    C    0.00686018    0.43077984    0.50920030    -0.00260000
opls_145-342    C    0.04879007    0.33168001    0.46605057    -0.12980000
opls_700-343    C    0.01215013    0.47788997    0.53075017    0.03210000
opls_145-344    C    0.06351010    0.47037986    0.58335979    -0.10070000
opls_700-345    C    0.96785005    0.40360990    0.49893065    -0.00080000
opls_700-346    C    0.01522016    0.35077988    0.47878004    0.06960000
opls_700-347    C    0.97325003    0.45067000    0.50261021    -0.00210000
opls_700-348    C    0.97857007    0.49805991    0.50474984    0.02880000
opls_145-349    C    0.03124995    0.49032002    0.56072992    -0.14230000
opls_700-350    C    0.94853994    0.38986998    0.50184024    0.02870000
opls_700-351    C    0.95392019    0.43720983    0.49985054    -0.00200000
opls_145-352    C    0.99556006    0.33777004    0.47617029    -0.12970000
opls_700-353    C    0.95941006    0.48422999    0.49598034    -0.00110000
opls_145-354    C    0.96430015    0.53098982    0.48629002    -0.12990000
opls_700-355    C    0.91449999    0.41023995    0.51647058    0.03170000
opls_145-356    C    0.96318021    0.35677982    0.48959015    -0.12990000
opls_700-357    C    0.92028002    0.45713003    0.49548060    -0.00260000
opls_700-358    C    0.92621009    0.50370996    0.47775002    -0.00070000
opls_145-359    C    0.93236006    0.54979989    0.46145019    -0.12950000
opls_700-360    C    0.90067016    0.44379991    0.50693018    0.00250000
opls_145-361    C    0.89481003    0.39800986    0.54037016    -0.14230000
opls_700-362    C    0.90652003    0.49022983    0.48080029    -0.00010000
opls_700-363    C    0.91270003    0.53678999    0.45849062    0.06960000
opls_700-364    C    0.86712007    0.46424998    0.51240973    0.03010000
opls_145-365    C    0.86224000    0.41811987    0.55418981    -0.04980000
opls_700-366    C    0.87293005    0.51012993    0.46974031    0.03070000
opls_145-367    C    0.87954005    0.55569983    0.43460030    -0.12990000
opls_145-368    C    0.84854998    0.45041994    0.53966034    -0.13760000
opls_145-369    C    0.86067009    0.54292991    0.43954031    -0.16160000
opls_700-370    C    0.07389998    0.39060003    0.52149019    -0.02910000
opls_700-371    C    0.85317005    0.49753000    0.48984002    -0.02890000
opls_700-372    C    0.41477013    0.38008997    0.50205032    -0.02890000
opls_700-373    C    0.51532006    0.49839996    0.48688045    -0.02890000
opls_700-374    C    0.52544014    0.83008997    0.41190009    -0.02910000
opls_700-375    C    0.41290008    0.05130991    0.43235054    -0.02910000
opls_262-376    N    0.54036014    0.65948983    0.83978074    -0.32920000
opls_262-377    N    0.67270997    0.51194996    0.94977063    -0.32910000
opls_520-378    N    0.65058009    0.61845985    0.92235992    -0.31800000
opls_520-379    N    0.33075006    0.25486979    0.94273078    -0.32830000
opls_262-380    N    0.25920996    0.36787993    0.94240040    -0.32920000
opls_262-381    N    0.24520000    0.23524995    0.92028045    -0.32920000
opls_262-382    N    0.54036008    0.65948995    0.33978028    -0.32920000
opls_262-383    N    0.67271003    0.51194984    0.44977017    -0.32920000
opls_520-384    N    0.65058003    0.61845997    0.42236038    -0.31800000
opls_520-385    N    0.33075000    0.25486991    0.44273032    -0.32840000
opls_262-386    N    0.25920990    0.36788005    0.44239993    -0.32920000
opls_262-387    N    0.24520006    0.23524983    0.42027998    -0.32920000
opls_144-388    H    0.57079008    0.59090991    0.84542040    0.12080000
opls_144-389    H    0.62408009    0.67726991    0.84768033    0.08590000
opls_144-390    H    0.70792003    0.54220980    0.92271992    0.08900000
opls_144-391    H    0.61181012    0.54571995    0.05703046    0.10070000
opls_144-392    H    0.70646015    0.60295984    0.00647996    0.13140000
opls_144-393    H    0.56565004    0.68724994    0.99546070    0.12080000
opls_146-394    H    0.59619999    0.51208996    0.14309022    0.10520000
opls_146-395    H    0.54416998    0.56871992    0.82566033    0.06960000
opls_146-396    H    0.75738012    0.58218004    0.13539979    0.10210000
opls_146-397    H    0.75377007    0.52954998    0.82381037    0.07880000
opls_146-398    H    0.59459002    0.72744985    0.77006986    0.08030000
opls_146-399    H    0.53550006    0.73768994    0.08479006    0.10520000
opls_702-400    H    0.48315005    0.56854989    0.82691060    0.12770000
opls_702-401    H    0.51304010    0.55423993    0.71370017    0.12490000
opls_702-402    H    0.49993015    0.52928980    0.77408073    0.12550000
opls_702-403    H    0.58574006    0.45681987    0.14567961    0.12780000
opls_702-404    H    0.57499001    0.48614988    0.25870033    0.12420000
opls_702-405    H    0.54635011    0.47819994    0.19903051    0.12320000
opls_702-406    H    0.82466012    0.56818992    0.14303007    0.12890000
opls_702-407    H    0.80439997    0.55923001    0.25572965    0.12610000
opls_702-408    H    0.84132994    0.52907006    0.19917025    0.12320000
opls_702-409    H    0.81466998    0.46730991    0.82844036    0.13020000
opls_702-410    H    0.80048008    0.49713994    0.71419991    0.12850000
opls_702-411    H    0.83863017    0.48233989    0.77741048    0.12730000
opls_702-412    H    0.48165008    0.80515993    0.07522005    0.12630000
opls_702-413    H    0.51046012    0.78626994    0.19105966    0.12610000
opls_702-414    H    0.50374009    0.82224000    0.12451009    0.12540000
opls_702-415    H    0.59538999    0.78849996    0.75589022    0.12770000
opls_702-416    H    0.58107023    0.77254979    0.64664994    0.12490000
opls_702-417    H    0.55646011    0.81167984    0.69987035    0.12320000
opls_146-418    H    0.57678016    0.45594985    0.92443014    0.09540000
opls_146-419    H    0.48145012    0.56102988    0.04989991    0.10150000
opls_146-420    H    0.60096011    0.39888989    0.91084000    0.10630000
opls_146-421    H    0.42409998    0.59328000    0.07500997    0.06180000
opls_146-422    H    0.39017011    0.57075006    0.04575022    0.09540000
opls_146-423    H    0.59687003    0.35031992    0.93205024    0.10630000
opls_146-424    H    0.36434011    0.55308989    0.97762000    0.06410000
opls_146-425    H    0.56546011    0.32553989    0.96840073    0.06180000
opls_146-426    H    0.33269005    0.52841978    0.94986040    0.10590000
opls_146-427    H    0.54031006    0.30779008    0.04785006    0.09540000
opls_146-428    H    0.50661000    0.28534989    0.08897029    0.06180000
opls_146-429    H    0.32859006    0.47986999    0.93109055    0.07960000
opls_146-430    H    0.44909004    0.31756987    0.07036980    0.11480000
opls_146-431    H    0.35295005    0.42273985    0.94341006    0.09540000
opls_146-432    H    0.48159005    0.81364984    0.85254076    0.10140000
opls_146-433    H    0.58794013    0.79864986    0.97771995    0.10670000
opls_146-434    H    0.42478015    0.84896987    0.84044059    0.10200000
opls_146-435    H    0.62167005    0.82161983    0.99579016    0.06410000
opls_146-436    H    0.60083021    0.87821982    0.95891031    0.09540000
opls_146-437    H    0.37731008    0.90327988    0.86274007    0.10520000
opls_146-438    H    0.58391018    0.92209983    0.88567996    0.12060000
opls_146-439    H    0.35420015    0.95967981    0.89997066    0.06410000
opls_146-440    H    0.56049011    0.97908981    0.86079016    0.09690000
opls_146-441    H    0.33800007    0.00242993    0.97981052    0.11830000
opls_146-442    H    0.31736000    0.05852990    0.02370061    0.06180000
opls_146-443    H    0.51294010    0.03365981    0.85326075    0.10520000
opls_146-444    H    0.35085000    0.08186990    0.00456059    0.10140000
opls_146-445    H    0.45632005    0.06867985    0.87502996    0.06410000
opls_146-446    H    0.33400001    0.36660989    0.16636050    0.10520000
opls_702-447    H    0.34445003    0.42146992    0.16413018    0.12700000
opls_702-448    H    0.35600013    0.39196988    0.27876024    0.12490000
opls_702-449    H    0.38408012    0.40039985    0.21456963    0.12840000
opls_146-450    H    0.38584011    0.30945979    0.85187074    0.10200000
opls_702-451    H    0.44699005    0.30985990    0.84760074    0.12890000
opls_702-452    H    0.41691003    0.32370982    0.73569056    0.12610000
opls_702-453    H    0.42980001    0.34901001    0.79116072    0.12320000
opls_144-454    H    0.31551009    0.33621997    0.07184958    0.10560000
opls_144-455    H    0.36293010    0.28223986    0.90146988    0.10560000
opls_144-456    H    0.22159009    0.33820982    0.89961992    0.10070000
opls_144-457    H    0.31130003    0.19952001    0.89454016    0.10200000
opls_144-458    H    0.21969005    0.28992001    0.08099019    0.13030000
opls_144-459    H    0.37197001    0.19631987    0.98967020    0.13060000
opls_146-460    H    0.16970996    0.30799005    0.17935002    0.10630000
opls_146-461    H    0.17351001    0.35992981    0.86072075    0.06420000
opls_146-462    H    0.34386997    0.15384988    0.78656034    0.07880000
opls_146-463    H    0.40328014    0.14376993    0.09757969    0.10630000
opls_702-464    H    0.10349010    0.31981998    0.18375976    0.12810000
opls_702-465    H    0.12187996    0.33062002    0.29632053    0.12420000
opls_702-466    H    0.08493008    0.35942995    0.23400024    0.12420000
opls_702-467    H    0.11122006    0.42199991    0.86239025    0.12900000
opls_702-468    H    0.12760005    0.39212995    0.74979062    0.12420000
opls_702-469    H    0.08919012    0.40531996    0.80806024    0.12420000
opls_702-470    H    0.34295011    0.09262981    0.78023031    0.12890000
opls_702-471    H    0.35666001    0.10894990    0.66783982    0.12550000
opls_702-472    H    0.38171006    0.06975993    0.72177004    0.12540000
opls_702-473    H    0.45647000    0.07684987    0.09601014    0.12400000
opls_702-474    H    0.42698015    0.09499988    0.20981007    0.12640000
opls_702-475    H    0.43476004    0.05896002    0.14286997    0.12540000
opls_146-476    H    0.09304003    0.32908985    0.96410020    0.08100000
opls_146-477    H    0.10295006    0.42319987    0.08774037    0.10370000
opls_146-478    H    0.05954996    0.30623990    0.94926996    0.09790000
opls_146-479    H    0.07788009    0.48063000    0.10902002    0.12060000
opls_146-480    H    0.02129000    0.51587993    0.06917968    0.12060000
opls_146-481    H    0.00601007    0.31219000    0.96459994    0.10630000
opls_146-482    H    0.97846999    0.54237988    0.98877992    0.06410000
opls_146-483    H    0.94901003    0.34537983    0.98800995    0.06180000
opls_146-484    H    0.92224011    0.57523993    0.94524058    0.13980000
opls_146-485    H    0.90449007    0.37250998    0.05125014    0.09540000
opls_146-486    H    0.84738002    0.40803990    0.07560966    0.07400000
opls_146-487    H    0.86921010    0.58092979    0.91278065    0.09690000
opls_146-488    H    0.82292009    0.46534003    0.05012017    0.10370000
opls_146-489    H    0.83541013    0.55825980    0.92069042    0.12060000
opls_144-490    H    0.57079002    0.59091003    0.34541993    0.12080000
opls_144-491    H    0.62408003    0.67727003    0.34767987    0.08600000
opls_144-492    H    0.70791997    0.54220992    0.42272038    0.08900000
opls_144-493    H    0.61181018    0.54571984    0.55702999    0.10070000
opls_144-494    H    0.70646009    0.60295996    0.50648042    0.13130000
opls_144-495    H    0.56565010    0.68724983    0.49546024    0.12080000
opls_146-496    H    0.59620005    0.51208985    0.64309069    0.10520000
opls_146-497    H    0.54416992    0.56872004    0.32565986    0.06960000
opls_146-498    H    0.75737998    0.58217992    0.63540025    0.10200000
opls_146-499    H    0.75377013    0.52954987    0.32380990    0.07880000
opls_146-500    H    0.59459016    0.72744997    0.27007032    0.08030000
opls_146-501    H    0.53550012    0.73768982    0.58479052    0.10520000
opls_702-502    H    0.48314999    0.56855001    0.32691014    0.12770000
opls_702-503    H    0.51304004    0.55424005    0.21369971    0.12490000
opls_702-504    H    0.49993009    0.52928992    0.27408027    0.12540000
opls_702-505    H    0.58574000    0.45681999    0.64568008    0.12770000
opls_702-506    H    0.57498995    0.48615000    0.75869986    0.12420000
opls_702-507    H    0.54635017    0.47819983    0.69903004    0.12320000
opls_702-508    H    0.82466018    0.56818981    0.64303053    0.12890000
opls_702-509    H    0.80440003    0.55922989    0.75573011    0.12610000
opls_702-510    H    0.84133000    0.52906994    0.69917071    0.12320000
opls_702-511    H    0.81466992    0.46731003    0.32843990    0.13020000
opls_702-512    H    0.80048002    0.49714006    0.21420038    0.12840000
opls_702-513    H    0.83863011    0.48234001    0.27741002    0.12740000
opls_702-514    H    0.48165014    0.80515981    0.57522051    0.12630000
opls_702-515    H    0.51046018    0.78626982    0.69106012    0.12610000
opls_702-516    H    0.50374015    0.82223988    0.62451056    0.12540000
opls_702-517    H    0.59539005    0.78849984    0.25588975    0.12770000
opls_702-518    H    0.58107017    0.77254991    0.14665040    0.12490000
opls_702-519    H    0.55646005    0.81167996    0.19986988    0.12320000
opls_146-520    H    0.57678010    0.45594997    0.42443060    0.09540000
opls_146-521    H    0.48145006    0.56102999    0.54990038    0.10140000
opls_146-522    H    0.60096005    0.39889001    0.41084046    0.10630000
opls_146-523    H    0.42410004    0.59327988    0.57501043    0.06180000
opls_146-524    H    0.39016997    0.57074994    0.54574976    0.09540000
opls_146-525    H    0.59686997    0.35032004    0.43204977    0.10640000
opls_146-526    H    0.36434005    0.55309001    0.47762046    0.06410000
opls_146-527    H    0.56546005    0.32554001    0.46840027    0.06180000
opls_146-528    H    0.33268999    0.52841989    0.44985993    0.10590000
opls_146-529    H    0.54031012    0.30778996    0.54785052    0.09540000
opls_146-530    H    0.50660994    0.28535001    0.58896982    0.06180000
opls_146-531    H    0.32859012    0.47986987    0.43109009    0.07960000
opls_146-532    H    0.44908998    0.31756999    0.57037026    0.11480000
opls_146-533    H    0.35294999    0.42273997    0.44341052    0.09540000
opls_146-534    H    0.48158999    0.81364995    0.35254030    0.10140000
opls_146-535    H    0.58794007    0.79864998    0.47772041    0.10670000
opls_146-536    H    0.42478009    0.84896999    0.34044012    0.10200000
opls_146-537    H    0.62166999    0.82161995    0.49579062    0.06410000
opls_146-538    H    0.60083015    0.87821994    0.45890985    0.09540000
opls_146-539    H    0.37731002    0.90328000    0.36274053    0.10520000
opls_146-540    H    0.58391012    0.92209995    0.38568043    0.12060000
opls_146-541    H    0.35420009    0.95967993    0.39997020    0.06410000
opls_146-542    H    0.56049005    0.97908992    0.36078970    0.09690000
opls_146-543    H    0.33800001    0.00243005    0.47981006    0.11830000
opls_146-544    H    0.31735994    0.05853002    0.52370015    0.06180000
opls_146-545    H    0.51294004    0.03365993    0.35326029    0.10520000
opls_146-546    H    0.35084994    0.08187002    0.50456012    0.10140000
opls_146-547    H    0.45631999    0.06867997    0.37503042    0.06410000
opls_146-548    H    0.33399995    0.36661000    0.66636004    0.10520000
opls_702-549    H    0.34445009    0.42146980    0.66413064    0.12710000
opls_702-550    H    0.35600007    0.39197000    0.77876070    0.12490000
opls_702-551    H    0.38408006    0.40039997    0.71457009    0.12840000
opls_146-552    H    0.38584005    0.30945991    0.35187028    0.10200000
opls_702-553    H    0.44698999    0.30986002    0.34760028    0.12890000
opls_702-554    H    0.41690997    0.32370993    0.23569010    0.12610000
opls_702-555    H    0.42980007    0.34900989    0.29116026    0.12320000
opls_144-556    H    0.31551015    0.33621985    0.57185004    0.10560000
opls_144-557    H    0.36293004    0.28223998    0.40147034    0.10560000
opls_144-558    H    0.22159003    0.33820993    0.39962038    0.10070000
opls_144-559    H    0.31130009    0.19951989    0.39453970    0.10210000
opls_144-560    H    0.21969011    0.28991989    0.58099065    0.13030000
opls_144-561    H    0.37196995    0.19631998    0.48966974    0.13050000
opls_146-562    H    0.16971002    0.30798993    0.67935049    0.10630000
opls_146-563    H    0.17351015    0.35992993    0.36072029    0.06180000
opls_146-564    H    0.34386991    0.15385000    0.28655988    0.07880000
opls_146-565    H    0.40327988    0.14377004    0.59758015    0.10630000
opls_702-566    H    0.10349016    0.31981986    0.68376022    0.12810000
opls_702-567    H    0.12188002    0.33061990    0.79632007    0.12420000
opls_702-568    H    0.08493014    0.35942983    0.73400070    0.12420000
opls_702-569    H    0.11122000    0.42200003    0.36238979    0.12890000
opls_702-570    H    0.12759999    0.39213007    0.24979016    0.12430000
opls_702-571    H    0.08919018    0.40531985    0.30805978    0.12420000
opls_702-572    H    0.34295005    0.09262993    0.28022984    0.12890000
opls_702-573    H    0.35665995    0.10895002    0.16784028    0.12540000
opls_702-574    H    0.38171000    0.06976005    0.22177050    0.12540000
opls_702-575    H    0.45646994    0.07684999    0.59601060    0.12400000
opls_702-576    H    0.42698009    0.09499999    0.70981053    0.12640000
opls_702-577    H    0.43476010    0.05895991    0.64287043    0.12540000
opls_146-578    H    0.09303997    0.32908997    0.46409973    0.08110000
opls_146-579    H    0.10295000    0.42319999    0.58773991    0.10370000
opls_146-580    H    0.05955011    0.30624001    0.44927043    0.09790000
opls_146-581    H    0.07788014    0.48062988    0.60902048    0.12060000
opls_146-582    H    0.02129006    0.51587981    0.56918014    0.12060000
opls_146-583    H    0.00601013    0.31218988    0.46460040    0.10590000
opls_146-584    H    0.97847013    0.54238000    0.48878039    0.06410000
opls_146-585    H    0.94900997    0.34537995    0.48801042    0.06180000
opls_146-586    H    0.92224017    0.57523981    0.44524012    0.13980000
opls_146-587    H    0.90449013    0.37250986    0.55125060    0.09540000
opls_146-588    H    0.84737996    0.40804002    0.57561012    0.07400000
opls_146-589    H    0.86921004    0.58092991    0.41278019    0.09690000
opls_146-590    H    0.82292015    0.46533992    0.55012063    0.10370000
opls_146-591    H    0.83541007    0.55825991    0.42068996    0.12060000
