#======================================================================
# Crystal Data Generated By AuToFF
#----------------------------------------------------------------------

data_AuToFF_phase_1

_cell_length_a                         35.0000
_cell_length_b                         28.3000
_cell_length_c                         19.0000
_cell_angle_alpha                      90.00
_cell_angle_beta                       87.60
_cell_angle_gamma                      90.00
_symmetry_space_group_name_H-M_alt     'P 1'
_symmetry_space_group_IT_number        1

loop_
_space_group_symop_operation_xyz
   'x, y, z'

loop_
   _atom_site_label
   _atom_site_type_symbol
   _atom_site_fract_x
   _atom_site_fract_y
   _atom_site_fract_z
   _atom_site_charge
opls_750-0    N    0.27380987    0.83773993    0.25491997    -0.19800000
opls_750-1    N    0.47696995    0.67179011    0.26975984    -0.20750000
opls_750-2    N    0.48151985    0.33773993    0.25159021    -0.21910000
opls_750-3    N    0.27841013    0.17183004    0.23675983    -0.14680000
opls_750-4    N    0.98151985    0.83773993    0.25159021    -0.19840000
opls_750-5    N    0.77836013    0.67179011    0.23675983    -0.20750000
opls_750-6    N    0.77380987    0.33773993    0.25491997    -0.21910000
opls_750-7    N    0.97691989    0.17183004    0.26974983    -0.14700000
opls_750-8    N    0.72618984    0.83773993    0.74508003    -0.19800000
opls_750-9    N    0.52303005    0.67179011    0.73024016    -0.20750000
opls_750-10    N    0.51847985    0.33773993    0.74841032    -0.21910000
opls_750-11    N    0.72158987    0.17183004    0.76324017    -0.14680000
opls_750-12    N    0.01847985    0.83773993    0.74841032    -0.19840000
opls_750-13    N    0.22163987    0.67179011    0.76324017    -0.20750000
opls_750-14    N    0.22618984    0.33773993    0.74508003    -0.21910000
opls_750-15    N    0.02307982    0.17183004    0.73025017    -0.14700000
opls_142-16    C    0.26798989    0.87869011    0.27988029    0.10110000
opls_142-17    C    0.48153011    0.63124982    0.24268029    0.09460000
opls_700-18    C    0.59081002    0.55280000    0.25529030    0.08420000
opls_145-19    C    0.55655008    0.53080000    0.29288012    -0.07040000
opls_145-20    C    0.51838990    0.55439011    0.29236019    -0.07030000
opls_700-21    C    0.51415007    0.59993004    0.25339021    0.08800000
opls_145-22    C    0.54813997    0.62193004    0.21534999    -0.07040000
opls_145-23    C    0.58637999    0.59850000    0.21637984    -0.07040000
opls_145-24    C    0.23286007    0.90429011    0.27163991    0.06230000
opls_145-25    C    0.23108991    0.94686996    0.23785026    -0.09680000
opls_145-26    C    0.19693986    0.96910000    0.23142989    -0.09570000
opls_145-27    C    0.16398994    0.94909011    0.25870013    0.14260000
opls_145-28    C    0.16560991    0.90664982    0.29246028    -0.09800000
opls_145-29    C    0.19975009    0.88440989    0.29890014    -0.09120000
opls_136-30    C    0.41122999    0.66863004    0.29130031    0.04110000
opls_136-31    C    0.30208997    0.77139011    0.20899020    0.06840000
opls_136-32    C    0.44741986    0.73773004    0.32000023    0.02780000
opls_136-33    C    0.33870011    0.84130000    0.23802989    0.06990000
opls_139-34    C    0.44330986    0.69920000    0.26774017    0.16090000
opls_136-35    C    0.44153992    0.71536996    0.19062988    0.06800000
opls_139-36    C    0.30664000    0.80977986    0.26330997    0.16090000
opls_136-37    C    0.30860987    0.79392014    0.33801024    0.06910000
opls_142-38    C    0.48734012    0.37869011    0.22662989    0.08930000
opls_145-39    C    0.52337992    0.40233993    0.23428029    0.06790000
opls_142-40    C    0.27379995    0.13124982    0.26383991    0.09550000
opls_145-41    C    0.52870988    0.44590000    0.20457001    -0.09270000
opls_145-42    C    0.56240986    0.46910000    0.21127010    -0.08560000
opls_145-43    C    0.59134984    0.44909011    0.24782006    0.11910000
opls_145-44    C    0.58616999    0.40565018    0.27750031    -0.09820000
opls_145-45    C    0.55248007    0.38245018    0.27081023    -0.08860000
opls_700-46    C    0.16452004    0.05280000    0.25122989    0.08320000
opls_145-47    C    0.19800997    0.03146007    0.28699022    -0.07040000
opls_145-48    C    0.23484008    0.05780989    0.29058021    -0.07030000
opls_700-49    C    0.23826011    0.10600000    0.25917002    0.08870000
opls_145-50    C    0.20489011    0.12765018    0.22384007    -0.07040000
opls_145-51    C    0.16813994    0.10110989    0.21975017    -0.07030000
opls_136-52    C    0.45104991    0.27220000    0.29925993    0.02740000
opls_136-53    C    0.34372985    0.16783993    0.21341988    0.06990000
opls_136-54    C    0.41441012    0.34103993    0.27110997    0.04060000
opls_136-55    C    0.30666012    0.23747986    0.18494016    0.06840000
opls_139-56    C    0.44685993    0.31104982    0.24758986    0.16250000
opls_136-57    C    0.44563000    0.29542014    0.17013980    0.06800000
opls_139-58    C    0.31127991    0.19876007    0.23867994    0.16090000
opls_136-59    C    0.31272005    0.21410989    0.31371998    0.06910000
opls_142-60    C    0.98734012    0.87869011    0.22662989    0.09700000
opls_142-61    C    0.77379995    0.63124982    0.26383991    0.09450000
opls_700-62    C    0.66452004    0.55280000    0.25122989    0.08420000
opls_145-63    C    0.69877998    0.53080000    0.21364007    -0.07040000
opls_145-64    C    0.73694011    0.55439011    0.21414999    -0.07030000
opls_700-65    C    0.74118993    0.59993004    0.25311997    0.08800000
opls_145-66    C    0.70719010    0.62193004    0.29117020    -0.07040000
opls_145-67    C    0.66895003    0.59850000    0.29012981    -0.07040000
opls_145-68    C    0.02248000    0.90429011    0.23488029    0.06230000
opls_145-69    C    0.02424010    0.94686996    0.26865992    -0.09680000
opls_145-70    C    0.05838992    0.96910000    0.27509030    -0.09650000
opls_145-71    C    0.09134984    0.94909011    0.24782006    0.14260000
opls_145-72    C    0.08972010    0.90664982    0.21404991    -0.09370000
opls_145-73    C    0.05557992    0.88440989    0.20761005    -0.09560000
opls_136-74    C    0.84410007    0.66863004    0.21521988    0.04060000
opls_136-75    C    0.95324009    0.77139011    0.29752999    0.06840000
opls_136-76    C    0.80790986    0.73773004    0.18650995    0.02780000
opls_136-77    C    0.91662995    0.84130000    0.26849030    0.06990000
opls_139-78    C    0.81201992    0.69920000    0.23878002    0.16090000
opls_136-79    C    0.81378986    0.71536996    0.31589031    0.06800000
opls_139-80    C    0.94869006    0.80977986    0.24321023    0.16090000
opls_136-81    C    0.94671991    0.79392014    0.16850995    0.06910000
opls_142-82    C    0.76798989    0.37869011    0.27988029    0.08930000
opls_145-83    C    0.73194986    0.40233993    0.27223991    0.06790000
opls_142-84    C    0.98153011    0.13124982    0.24268029    0.09550000
opls_145-85    C    0.72661990    0.44590000    0.30195018    -0.09270000
opls_145-86    C    0.69291992    0.46910000    0.29525010    -0.09420000
opls_145-87    C    0.66398994    0.44909011    0.25870013    0.11910000
opls_145-88    C    0.66916002    0.40565018    0.22900987    -0.09820000
opls_145-89    C    0.70284999    0.38245018    0.23570996    -0.08860000
opls_700-90    C    0.09081002    0.05280000    0.25529030    0.08320000
opls_145-91    C    0.05732009    0.03146007    0.21952998    -0.07040000
opls_145-92    C    0.02048993    0.05780989    0.21592998    -0.07040000
opls_700-93    C    0.01706989    0.10600000    0.24734017    0.08870000
opls_145-94    C    0.05043990    0.12765018    0.28267011    -0.07040000
opls_145-95    C    0.08718984    0.10110989    0.28677002    -0.07030000
opls_136-96    C    0.80427987    0.27220000    0.20726026    0.02740000
opls_136-97    C    0.91159993    0.16783993    0.29310031    0.06990000
opls_136-98    C    0.84091989    0.34103993    0.23540022    0.04060000
opls_136-99    C    0.94866989    0.23747986    0.32157003    0.06840000
opls_139-100    C    0.80847009    0.31104982    0.25891980    0.16250000
opls_136-101    C    0.80970008    0.29542014    0.33637987    0.06800000
opls_139-102    C    0.94404987    0.19876007    0.26784026    0.16090000
opls_136-103    C    0.94261001    0.21410989    0.19280021    0.06910000
opls_137-104    C    0.12766989    0.97357986    0.25326010    -0.04160000
opls_701-105    C    0.12766989    0.02642014    0.25326010    -0.03470000
opls_700-106    C    0.62766989    0.52642014    0.25326010    -0.02420000
opls_700-107    C    0.62766989    0.47357986    0.25326010    -0.04520000
opls_142-108    C    0.73200982    0.87869011    0.72012023    0.10110000
opls_142-109    C    0.51846988    0.63124982    0.75732024    0.09460000
opls_700-110    C    0.40918996    0.55280000    0.74471023    0.08420000
opls_145-111    C    0.44344992    0.53080000    0.70711988    -0.07040000
opls_145-112    C    0.48160980    0.55439011    0.70764033    -0.07030000
opls_700-113    C    0.48584991    0.59993004    0.74661032    0.08800000
opls_145-114    C    0.45186003    0.62193004    0.78465001    -0.07040000
opls_145-115    C    0.41362001    0.59850000    0.78362016    -0.07040000
opls_145-116    C    0.76713993    0.90429011    0.72836009    0.06230000
opls_145-117    C    0.76891008    0.94686996    0.76215027    -0.09680000
opls_145-118    C    0.80305985    0.96910000    0.76857011    -0.09580000
opls_145-119    C    0.83601005    0.94909011    0.74130039    0.14260000
opls_145-120    C    0.83439008    0.90664982    0.70754025    -0.09800000
opls_145-121    C    0.80024990    0.88440989    0.70110039    -0.09120000
opls_136-122    C    0.58876999    0.66863004    0.70870021    0.04110000
opls_136-123    C    0.69791002    0.77139011    0.79101032    0.06840000
opls_136-124    C    0.55257984    0.73773004    0.68000029    0.02780000
opls_136-125    C    0.66129989    0.84130000    0.76197011    0.06990000
opls_139-126    C    0.55668984    0.69920000    0.73226036    0.16090000
opls_136-127    C    0.55846008    0.71536996    0.80937012    0.06800000
opls_139-128    C    0.69336000    0.80977986    0.73669003    0.16090000
opls_136-129    C    0.69138983    0.79392014    0.66199028    0.06910000
opls_142-130    C    0.51265988    0.37869011    0.77337011    0.08930000
opls_145-131    C    0.47662007    0.40233993    0.76572024    0.06790000
opls_142-132    C    0.72620005    0.13124982    0.73616009    0.09550000
opls_145-133    C    0.47128983    0.44590000    0.79542999    -0.09270000
opls_145-134    C    0.43758986    0.46910000    0.78872990    -0.08560000
opls_145-135    C    0.40864987    0.44909011    0.75217994    0.11910000
opls_145-136    C    0.41383000    0.40565018    0.72250021    -0.09820000
opls_145-137    C    0.44751992    0.38245018    0.72919029    -0.08860000
opls_700-138    C    0.83547996    0.05280000    0.74877011    0.08320000
opls_145-139    C    0.80199001    0.03146007    0.71301031    -0.07040000
opls_145-140    C    0.76515991    0.05780989    0.70942032    -0.07030000
opls_700-141    C    0.76173989    0.10600000    0.74082998    0.08870000
opls_145-142    C    0.79510989    0.12765018    0.77615993    -0.07040000
opls_145-143    C    0.83186005    0.10110989    0.78025036    -0.07030000
opls_136-144    C    0.54894980    0.27220000    0.70074007    0.02740000
opls_136-145    C    0.65626987    0.16783993    0.78658012    0.07000000
opls_136-146    C    0.58558988    0.34103993    0.72889003    0.04060000
opls_136-147    C    0.69333987    0.23747986    0.81506037    0.06840000
opls_139-148    C    0.55314007    0.31104982    0.75241014    0.16250000
opls_136-149    C    0.55437000    0.29542014    0.82986020    0.06800000
opls_139-150    C    0.68871981    0.19876007    0.76132006    0.16090000
opls_136-151    C    0.68727995    0.21410989    0.68628002    0.06910000
opls_142-152    C    0.01265988    0.87869011    0.77337011    0.09700000
opls_142-153    C    0.22620005    0.63124982    0.73616009    0.09450000
opls_700-154    C    0.33547996    0.55280000    0.74877011    0.08420000
opls_145-155    C    0.30122002    0.53080000    0.78635993    -0.07040000
opls_145-156    C    0.26305989    0.55439011    0.78585001    -0.07030000
opls_700-157    C    0.25881007    0.59993004    0.74688003    0.08800000
opls_145-158    C    0.29280989    0.62193004    0.70883033    -0.07040000
opls_145-159    C    0.33104997    0.59850000    0.70987019    -0.07040000
opls_145-160    C    0.97751999    0.90429011    0.76512024    0.06230000
opls_145-161    C    0.97575990    0.94686996    0.73134008    -0.09680000
opls_145-162    C    0.94161007    0.96910000    0.72491022    -0.09650000
opls_145-163    C    0.90864987    0.94909011    0.75217994    0.14260000
opls_145-164    C    0.91027990    0.90664982    0.78595009    -0.09370000
opls_145-165    C    0.94442008    0.88440989    0.79238995    -0.09560000
opls_136-166    C    0.15589993    0.66863004    0.78478012    0.04060000
opls_136-167    C    0.04675991    0.77139011    0.70247001    0.06840000
opls_136-168    C    0.19208985    0.73773004    0.81349005    0.02780000
opls_136-169    C    0.08337003    0.84130000    0.73151023    0.06990000
opls_139-170    C    0.18798008    0.69920000    0.76121998    0.16090000
opls_136-171    C    0.18620984    0.71536996    0.68411022    0.06800000
opls_139-172    C    0.05130992    0.80977986    0.75679030    0.16090000
opls_136-173    C    0.05327981    0.79392014    0.83149005    0.06910000
opls_142-174    C    0.23200982    0.37869011    0.72012023    0.08930000
opls_145-175    C    0.26804986    0.40233993    0.72776009    0.06790000
opls_142-176    C    0.01846988    0.13124982    0.75732024    0.09550000
opls_145-177    C    0.27337981    0.44590000    0.69805034    -0.09270000
opls_145-178    C    0.30708008    0.46910000    0.70474990    -0.09420000
opls_145-179    C    0.33601005    0.44909011    0.74130039    0.11900000
opls_145-180    C    0.33083998    0.40565018    0.77099013    -0.09810000
opls_145-181    C    0.29715001    0.38245018    0.76429004    -0.08860000
opls_700-182    C    0.90918996    0.05280000    0.74471023    0.08320000
opls_145-183    C    0.94267991    0.03146007    0.78047002    -0.07040000
opls_145-184    C    0.97951007    0.05780989    0.78407002    -0.07040000
opls_700-185    C    0.98292981    0.10600000    0.75266036    0.08870000
opls_145-186    C    0.94955982    0.12765018    0.71732989    -0.07040000
opls_145-187    C    0.91280988    0.10110989    0.71322998    -0.07030000
opls_136-188    C    0.19571983    0.27220000    0.79274026    0.02740000
opls_136-189    C    0.08840005    0.16783993    0.70690021    0.06990000
opls_136-190    C    0.15907981    0.34103993    0.76460031    0.04060000
opls_136-191    C    0.05132983    0.23747986    0.67842997    0.06840000
opls_139-192    C    0.19152991    0.31104982    0.74108020    0.16250000
opls_136-193    C    0.19029992    0.29542014    0.66362013    0.06800000
opls_139-194    C    0.05594983    0.19876007    0.73216027    0.16090000
opls_136-195    C    0.05738998    0.21410989    0.80720032    0.06910000
opls_137-196    C    0.87232982    0.97357986    0.74673990    -0.04160000
opls_701-197    C    0.87232982    0.02642014    0.74673990    -0.03470000
opls_700-198    C    0.37232982    0.52642014    0.74673990    -0.02420000
opls_700-199    C    0.37232982    0.47357986    0.74673990    -0.04520000
F2_Mo4f2-200    Mo    0.33553003    0.69147986    0.39568032    1.40050000
F2_Mo4f2-201    Mo    0.36546992    0.72464982    0.09658000    1.40100000
F2_Mo4f2-202    Mo    0.32614001    0.66170000    0.22665992    1.40050000
F2_Mo4f2-203    Mo    0.38426005    0.78453993    0.43434002    1.40050000
F2_Mo4f2-204    Mo    0.41419987    0.81770989    0.13523023    1.40100000
F2_Mo4f2-205    Mo    0.42349985    0.84763004    0.30390032    1.40050000
F2_Mo4f2-206    Mo    0.38777002    0.22376007    0.41163010    1.40050000
F2_Mo4f2-207    Mo    0.41950000    0.19313993    0.11240020    1.40100000
F2_Mo4f2-208    Mo    0.42821012    0.16213004    0.28075001    1.40050000
F2_Mo4f2-209    Mo    0.33841987    0.31646007    0.37373000    1.40050000
F2_Mo4f2-210    Mo    0.37014985    0.28585018    0.07450010    1.40100000
F2_Mo4f2-211    Mo    0.32961994    0.34733993    0.20501988    1.40050000
F2_Mo4f2-212    Mo    0.91980004    0.69147986    0.11083988    1.40050000
F2_Mo4f2-213    Mo    0.88985986    0.72464982    0.40994019    1.40100000
F2_Mo4f2-214    Mo    0.92919000    0.66170000    0.27985027    1.40050000
F2_Mo4f2-215    Mo    0.87107002    0.78453993    0.07218017    1.40050000
F2_Mo4f2-216    Mo    0.84113985    0.81770989    0.37127996    1.40100000
F2_Mo4f2-217    Mo    0.83182993    0.84763004    0.20261988    1.40050000
F2_Mo4f2-218    Mo    0.86756005    0.22376007    0.09489010    1.40050000
F2_Mo4f2-219    Mo    0.83583001    0.19313993    0.39410999    1.40100000
F2_Mo4f2-220    Mo    0.82711995    0.16213004    0.22577019    1.40050000
F2_Mo4f2-221    Mo    0.91690991    0.31646007    0.13279019    1.40050000
F2_Mo4f2-222    Mo    0.88517993    0.28585018    0.43202009    1.40100000
F2_Mo4f2-223    Mo    0.92570984    0.34733993    0.30150032    1.40050000
F2_Mo4f2-224    Mo    0.66446996    0.69147986    0.60432021    1.40050000
F2_Mo4f2-225    Mo    0.63452980    0.72464982    0.90342000    1.40100000
F2_Mo4f2-226    Mo    0.67385999    0.66170000    0.77334008    1.40050000
F2_Mo4f2-227    Mo    0.61573995    0.78453993    0.56565998    1.40050000
F2_Mo4f2-228    Mo    0.58579983    0.81770989    0.86477030    1.40100000
F2_Mo4f2-229    Mo    0.57649985    0.84763004    0.69610021    1.40050000
F2_Mo4f2-230    Mo    0.61222998    0.22376007    0.58836990    1.40050000
F2_Mo4f2-231    Mo    0.58049999    0.19313993    0.88760033    1.40100000
F2_Mo4f2-232    Mo    0.57178988    0.16213004    0.71924999    1.40050000
F2_Mo4f2-233    Mo    0.66157984    0.31646007    0.62627000    1.40050000
F2_Mo4f2-234    Mo    0.62984985    0.28585018    0.92550043    1.40100000
F2_Mo4f2-235    Mo    0.67038006    0.34733993    0.79498012    1.40050000
F2_Mo4f2-236    Mo    0.08019996    0.69147986    0.88916012    1.40050000
F2_Mo4f2-237    Mo    0.11013984    0.72464982    0.59006033    1.40100000
F2_Mo4f2-238    Mo    0.07080999    0.66170000    0.72015026    1.40050000
F2_Mo4f2-239    Mo    0.12892997    0.78453993    0.92782036    1.40050000
F2_Mo4f2-240    Mo    0.15885986    0.81770989    0.62872004    1.40110000
F2_Mo4f2-241    Mo    0.16817007    0.84763004    0.79738012    1.40050000
F2_Mo4f2-242    Mo    0.13243994    0.22376007    0.90511043    1.40050000
F2_Mo4f2-243    Mo    0.16416999    0.19313993    0.60589001    1.40100000
F2_Mo4f2-244    Mo    0.17288004    0.16213004    0.77423034    1.40050000
F2_Mo4f2-245    Mo    0.08308979    0.31646007    0.86721034    1.40050000
F2_Mo4f2-246    Mo    0.11482007    0.28585018    0.56797991    1.40110000
F2_Mo4f2-247    Mo    0.07428987    0.34733993    0.69850021    1.40050000
MOF2_O_3-248    O    0.33352985    0.74005018    0.20754999    -0.43940000
MOF2_O_3-249    O    0.37525985    0.69040989    0.29245027    -0.43950000
opls_272-250    O    0.30055988    0.70530989    0.45402993    -0.47290000
opls_180-251    O    0.30641998    0.68449011    0.31498004    -0.47490000
opls_272-252    O    0.39862996    0.70734982    0.03585988    -0.47290000
opls_180-253    O    0.36299986    0.67013993    0.15299002    -0.47490000
opls_272-254    O    0.33601010    0.60622014    0.24806027    -0.47290000
opls_272-255    O    0.34629984    0.63610000    0.41379990    -0.47290000
opls_272-256    O    0.32507009    0.72227986    0.05388991    -0.47290000
opls_272-257    O    0.28623010    0.65972014    0.18150978    -0.47290000
MOF2_O_3-258    O    0.37459002    0.81846996    0.24012015    -0.43950000
MOF2_O_3-259    O    0.41624997    0.76869011    0.32495985    -0.43950000
opls_272-260    O    0.35144987    0.80249011    0.49440009    -0.47290000
opls_180-261    O    0.38711984    0.83862014    0.37900990    -0.47490000
opls_272-262    O    0.44895012    0.80345018    0.07577016    -0.47290000
opls_180-263    O    0.44362995    0.82413993    0.21695983    -0.47490000
opls_272-264    O    0.46371992    0.85010000    0.34937021    -0.46870000
opls_272-265    O    0.42524003    0.78685018    0.47642010    -0.47290000
opls_272-266    O    0.40379992    0.87263004    0.11634998    -0.47300000
opls_272-267    O    0.41336986    0.90253004    0.28236985    -0.47290000
MOF2_O_3-268    O    0.34099011    0.76536996    0.35130981    -0.43950000
MOF2_O_3-269    O    0.40946005    0.74312014    0.18023023    -0.43950000
opls_180-270    O    0.37810003    0.71982014    0.43369999    -0.47490000
opls_180-271    O    0.37064991    0.78984982    0.09882987    -0.47490000
MOF2_O_3-272    O    0.37938001    0.19112014    0.21658002    -0.43950000
MOF2_O_3-273    O    0.42015004    0.24080989    0.30310014    -0.43950000
opls_272-274    O    0.35483002    0.20495018    0.47078990    -0.47290000
opls_180-275    O    0.39139987    0.17012014    0.35538022    -0.47490000
opls_272-276    O    0.45440996    0.20827986    0.05381985    -0.47290000
opls_180-277    O    0.44857006    0.18650000    0.19457018    -0.47490000
opls_272-278    O    0.46820004    0.15983993    0.32693000    -0.46870000
opls_272-279    O    0.42853998    0.22166007    0.45444029    -0.47290000
opls_272-280    O    0.40969002    0.13823004    0.09233996    -0.47300000
opls_272-281    O    0.41868986    0.10726007    0.25805009    -0.47290000
MOF2_O_3-282    O    0.33780009    0.26923004    0.18463989    -0.43950000
MOF2_O_3-283    O    0.37863984    0.31879011    0.27121006    -0.43950000
opls_272-284    O    0.30330006    0.30176007    0.43120991    -0.47290000
opls_180-285    O    0.30966988    0.32366007    0.29259988    -0.47490000
opls_272-286    O    0.40344999    0.30400989    0.01468025    -0.47280000
opls_180-287    O    0.36690986    0.33990000    0.13184989    -0.47490000
opls_272-288    O    0.33888006    0.40279011    0.22760022    -0.47290000
opls_272-289    O    0.34859999    0.37183993    0.39303010    -0.47290000
opls_272-290    O    0.32996988    0.28800000    0.03109992    -0.47290000
opls_272-291    O    0.28993988    0.34913004    0.15916017    -0.47290000
MOF2_O_3-292    O    0.34476990    0.24296996    0.32813000    -0.43950000
MOF2_O_3-293    O    0.41386004    0.26733993    0.15865025    -0.43940000
opls_180-294    O    0.38103007    0.28839011    0.41202992    -0.47480000
opls_180-295    O    0.37589988    0.22070989    0.07568008    -0.47490000
MOF2_O_3-296    O    0.92180992    0.74005018    0.29897020    -0.43950000
MOF2_O_3-297    O    0.88006993    0.69040989    0.21406992    -0.43950000
opls_272-298    O    0.95476990    0.70530989    0.05249026    -0.47290000
opls_180-299    O    0.94891009    0.68449011    0.19154016    -0.47490000
opls_272-300    O    0.85669982    0.70734982    0.47066031    -0.47290000
opls_180-301    O    0.89232992    0.67013993    0.35353018    -0.47490000
opls_272-302    O    0.91931991    0.60622014    0.25844991    -0.47280000
opls_272-303    O    0.90902996    0.63610000    0.09271977    -0.47290000
opls_272-304    O    0.93025998    0.72227986    0.45263028    -0.47290000
opls_272-305    O    0.96909998    0.65972014    0.32500989    -0.47290000
MOF2_O_3-306    O    0.88074998    0.81846996    0.26639004    -0.43950000
MOF2_O_3-307    O    0.83908005    0.76869011    0.18154981    -0.43950000
opls_272-308    O    0.90388991    0.80249011    0.01212011    -0.47290000
opls_180-309    O    0.86820995    0.83862014    0.12750977    -0.47490000
opls_272-310    O    0.80637989    0.80345018    0.43074002    -0.47290000
opls_180-311    O    0.81169985    0.82413993    0.28955984    -0.47490000
opls_272-312    O    0.79160986    0.85010000    0.15714998    -0.46870000
opls_272-313    O    0.83009003    0.78685018    0.03010009    -0.47290000
opls_272-314    O    0.85152986    0.87263004    0.39017022    -0.47300000
opls_272-315    O    0.84195993    0.90253004    0.22414982    -0.47290000
MOF2_O_3-316    O    0.91433997    0.76536996    0.15520986    -0.43950000
MOF2_O_3-317    O    0.84587002    0.74312014    0.32628996    -0.43940000
opls_180-318    O    0.87723004    0.71982014    0.07282021    -0.47490000
opls_180-319    O    0.88467986    0.78984982    0.40769033    -0.47490000
MOF2_O_3-320    O    0.87595006    0.19112014    0.28994017    -0.43950000
MOF2_O_3-321    O    0.83518002    0.24080989    0.20342005    -0.43950000
opls_272-322    O    0.90050006    0.20495018    0.03572977    -0.47290000
opls_180-323    O    0.86393991    0.17012014    0.15113997    -0.47490000
opls_272-324    O    0.80092010    0.20827986    0.45270034    -0.47290000
opls_180-325    O    0.80675994    0.18650000    0.31194000    -0.47490000
opls_272-326    O    0.78712997    0.15983993    0.17958019    -0.46870000
opls_272-327    O    0.82679009    0.22166007    0.05207990    -0.47290000
opls_272-328    O    0.84563999    0.13823004    0.41417022    -0.47300000
opls_272-329    O    0.83663986    0.10726007    0.24846010    -0.47290000
MOF2_O_3-330    O    0.91752998    0.26923004    0.32188030    -0.43950000
MOF2_O_3-331    O    0.87668988    0.31879011    0.23530013    -0.43950000
opls_272-332    O    0.95203002    0.30176007    0.07530976    -0.47290000
opls_180-333    O    0.94565991    0.32366007    0.21391979    -0.47490000
opls_272-334    O    0.85188007    0.30400989    0.49183995    -0.47290000
opls_180-335    O    0.88841992    0.33990000    0.37467030    -0.47480000
opls_272-336    O    0.91645000    0.40279011    0.27891998    -0.47290000
opls_272-337    O    0.90673002    0.37183993    0.11348009    -0.47290000
opls_272-338    O    0.92535990    0.28800000    0.47542028    -0.47290000
opls_272-339    O    0.96538990    0.34913004    0.34736003    -0.47290000
MOF2_O_3-340    O    0.91055987    0.24296996    0.17839020    -0.43950000
MOF2_O_3-341    O    0.84147002    0.26733993    0.34786995    -0.43950000
opls_180-342    O    0.87429993    0.28839011    0.09448026    -0.47490000
opls_180-343    O    0.87942984    0.22070989    0.43083010    -0.47490000
MOF2_O_3-344    O    0.66646986    0.74005018    0.79245001    -0.43950000
MOF2_O_3-345    O    0.62473985    0.69040989    0.70755026    -0.43950000
opls_272-346    O    0.69943984    0.70530989    0.54597007    -0.47290000
opls_180-347    O    0.69358002    0.68449011    0.68501996    -0.47490000
opls_272-348    O    0.60137004    0.70734982    0.96414012    -0.47290000
opls_180-349    O    0.63699986    0.67013993    0.84700998    -0.47490000
opls_272-350    O    0.66398989    0.60622014    0.75194025    -0.47290000
opls_272-351    O    0.65369988    0.63610000    0.58620010    -0.47290000
opls_272-352    O    0.67492991    0.72227986    0.94611009    -0.47290000
opls_272-353    O    0.71376990    0.65972014    0.81849022    -0.47290000
MOF2_O_3-354    O    0.62540997    0.81846996    0.75988038    -0.43950000
MOF2_O_3-355    O    0.58375003    0.76869011    0.67504015    -0.43950000
opls_272-356    O    0.64854984    0.80249011    0.50559991    -0.47290000
opls_180-357    O    0.61287987    0.83862014    0.62099010    -0.47490000
opls_272-358    O    0.55104987    0.80345018    0.92423036    -0.47290000
opls_180-359    O    0.55637005    0.82413993    0.78304017    -0.47490000
opls_272-360    O    0.53628007    0.85010000    0.65063032    -0.46870000
opls_272-361    O    0.57475997    0.78685018    0.52357990    -0.47290000
opls_272-362    O    0.59620008    0.87263004    0.88365002    -0.47300000
opls_272-363    O    0.58662985    0.90253004    0.71763015    -0.47290000
MOF2_O_3-364    O    0.65900989    0.76536996    0.64869019    -0.43940000
MOF2_O_3-365    O    0.59053994    0.74312014    0.81977029    -0.43950000
opls_180-366    O    0.62189997    0.71982014    0.56630001    -0.47490000
opls_180-367    O    0.62934980    0.78984982    0.90117013    -0.47490000
MOF2_O_3-368    O    0.62061999    0.19112014    0.78341998    -0.43950000
MOF2_O_3-369    O    0.57984995    0.24080989    0.69690039    -0.43950000
opls_272-370    O    0.64516998    0.20495018    0.52921010    -0.47290000
opls_180-371    O    0.60859984    0.17012014    0.64462031    -0.47490000
opls_272-372    O    0.54559004    0.20827986    0.94618015    -0.47290000
opls_180-373    O    0.55142993    0.18650000    0.80543034    -0.47490000
opls_272-374    O    0.53179996    0.15983993    0.67307000    -0.46870000
opls_272-375    O    0.57146001    0.22166007    0.54556024    -0.47290000
opls_272-376    O    0.59030998    0.13823004    0.90766004    -0.47300000
opls_272-377    O    0.58130986    0.10726007    0.74194991    -0.47290000
MOF2_O_3-378    O    0.66219991    0.26923004    0.81536011    -0.43950000
MOF2_O_3-379    O    0.62135987    0.31879011    0.72878994    -0.43950000
opls_272-380    O    0.69669994    0.30176007    0.56879009    -0.47290000
opls_180-381    O    0.69032983    0.32366007    0.70740012    -0.47490000
opls_272-382    O    0.59654999    0.30400989    0.98532028    -0.47290000
opls_180-383    O    0.63308986    0.33990000    0.86815011    -0.47490000
opls_272-384    O    0.66111993    0.40279011    0.77240031    -0.47290000
opls_272-385    O    0.65140001    0.37183993    0.60696990    -0.47290000
opls_272-386    O    0.67002984    0.28800000    0.96890008    -0.47290000
opls_272-387    O    0.71005982    0.34913004    0.84084036    -0.47290000
MOF2_O_3-388    O    0.65522981    0.24296996    0.67187000    -0.43950000
MOF2_O_3-389    O    0.58613994    0.26733993    0.84135028    -0.43950000
opls_180-390    O    0.61896993    0.28839011    0.58797008    -0.47490000
opls_180-391    O    0.62409982    0.22070989    0.92432044    -0.47490000
MOF2_O_3-392    O    0.07819006    0.74005018    0.70103033    -0.43950000
MOF2_O_3-393    O    0.11993007    0.69040989    0.78593008    -0.43950000
opls_272-394    O    0.04522980    0.70530989    0.94751026    -0.47290000
opls_180-395    O    0.05108990    0.68449011    0.80846037    -0.47490000
opls_272-396    O    0.14329988    0.70734982    0.52934022    -0.47290000
opls_180-397    O    0.10767007    0.67013993    0.64647035    -0.47480000
opls_272-398    O    0.08067980    0.60622014    0.74155009    -0.47290000
opls_272-399    O    0.09097004    0.63610000    0.90728023    -0.47290000
opls_272-400    O    0.06974001    0.72227986    0.54737025    -0.47290000
opls_272-401    O    0.03090002    0.65972014    0.67499011    -0.47290000
MOF2_O_3-402    O    0.11925002    0.81846996    0.73360996    -0.43950000
MOF2_O_3-403    O    0.16091995    0.76869011    0.81845019    -0.43950000
opls_272-404    O    0.09610979    0.80249011    0.98788042    -0.47290000
opls_180-405    O    0.13179005    0.83862014    0.87249023    -0.47490000
opls_272-406    O    0.19361983    0.80345018    0.56925998    -0.47290000
opls_180-407    O    0.18829987    0.82413993    0.71044016    -0.47490000
opls_272-408    O    0.20838985    0.85010000    0.84285002    -0.46870000
opls_272-409    O    0.16990995    0.78685018    0.96990043    -0.47290000
opls_272-410    O    0.14846985    0.87263004    0.60983031    -0.47300000
opls_272-411    O    0.15804007    0.90253004    0.77585018    -0.47290000
MOF2_O_3-412    O    0.08566003    0.76536996    0.84479014    -0.43950000
MOF2_O_3-413    O    0.15412998    0.74312014    0.67371004    -0.43950000
opls_180-414    O    0.12276995    0.71982014    0.92718032    -0.47490000
opls_180-415    O    0.11531984    0.78984982    0.59231020    -0.47490000
MOF2_O_3-416    O    0.12404993    0.19112014    0.71006035    -0.43950000
MOF2_O_3-417    O    0.16481998    0.24080989    0.79657995    -0.43950000
opls_272-418    O    0.09949994    0.20495018    0.96427023    -0.47290000
opls_180-419    O    0.13605980    0.17012014    0.84886003    -0.47490000
opls_272-420    O    0.19907989    0.20827986    0.54730018    -0.47290000
opls_180-421    O    0.19324006    0.18650000    0.68806000    -0.47490000
opls_272-422    O    0.21287002    0.15983993    0.82042034    -0.46870000
opls_272-423    O    0.17320991    0.22166007    0.94792010    -0.47290000
opls_272-424    O    0.15436000    0.13823004    0.58583030    -0.47300000
opls_272-425    O    0.16335985    0.10726007    0.75153990    -0.47290000
MOF2_O_3-426    O    0.08247001    0.26923004    0.67812022    -0.43950000
MOF2_O_3-427    O    0.12330982    0.31879011    0.76470040    -0.43950000
opls_272-428    O    0.04796998    0.30176007    0.92469024    -0.47290000
opls_180-429    O    0.05433980    0.32366007    0.78608021    -0.47490000
opls_272-430    O    0.14811993    0.30400989    0.50816005    -0.47290000
opls_180-431    O    0.11158006    0.33990000    0.62533022    -0.47490000
opls_272-432    O    0.08355000    0.40279011    0.72108002    -0.47290000
opls_272-433    O    0.09326997    0.37183993    0.88652044    -0.47290000
opls_272-434    O    0.07464008    0.28800000    0.52458025    -0.47290000
opls_272-435    O    0.03460982    0.34913004    0.65263997    -0.47290000
MOF2_O_3-436    O    0.08943983    0.24296996    0.82161033    -0.43950000
MOF2_O_3-437    O    0.15852998    0.26733993    0.65213005    -0.43950000
opls_180-438    O    0.12570005    0.28839011    0.90552026    -0.47490000
opls_180-439    O    0.12056988    0.22070989    0.56916990    -0.47480000
F2_Mn6+3-440    Mn    0.37507003    0.75435018    0.26586010    1.50880000
F2_Mn6+3-441    Mn    0.37916993    0.25504982    0.24347994    1.50880000
F2_Mn6+3-442    Mn    0.88025998    0.75435018    0.24065009    1.50880000
F2_Mn6+3-443    Mn    0.87615985    0.25504982    0.26304026    1.50880000
F2_Mn6+3-444    Mn    0.62492997    0.75435018    0.73413990    1.50890000
F2_Mn6+3-445    Mn    0.62083007    0.25504982    0.75652006    1.50880000
F2_Mn6+3-446    Mn    0.11974002    0.75435018    0.75934991    1.50880000
F2_Mn6+3-447    Mn    0.12383986    0.25504982    0.73696027    1.50880000
opls_144-448    H    0.29110998    0.89696007    0.31048030    0.03150000
opls_144-449    H    0.45765991    0.61960989    0.20750996    0.03150000
opls_146-450    H    0.55987992    0.49590989    0.32187029    0.05340000
opls_146-451    H    0.49268994    0.53772014    0.32153000    0.05340000
opls_146-452    H    0.54480986    0.65653993    0.18563023    0.05340000
opls_146-453    H    0.61214995    0.61530989    0.18764990    0.05340000
opls_146-454    H    0.25845010    0.96370000    0.21503024    0.05340000
opls_146-455    H    0.19571000    0.00455018    0.20321988    0.05330000
opls_146-456    H    0.13830998    0.88970989    0.31536985    0.05330000
opls_146-457    H    0.20096983    0.84897986    0.32714018    0.05340000
opls_140-458    H    0.41054999    0.63663993    0.25499004    0.04860000
opls_140-459    H    0.41761986    0.65603004    0.34656986    0.04860000
opls_140-460    H    0.27477002    0.75080000    0.22221022    0.04870000
opls_140-461    H    0.29984000    0.78857986    0.15507026    0.04860000
opls_140-462    H    0.45146984    0.72132014    0.37397021    0.04860000
opls_140-463    H    0.47436011    0.75822014    0.30370014    0.04870000
opls_140-464    H    0.33366994    0.85262014    0.18157984    0.04860000
opls_140-465    H    0.33869008    0.87390989    0.27316019    0.04870000
opls_140-466    H    0.44060989    0.68300000    0.15510029    0.04860000
opls_140-467    H    0.46809994    0.73699011    0.17565991    0.04870000
opls_140-468    H    0.28160995    0.77307986    0.35280006    0.04860000
opls_140-469    H    0.30995989    0.82604982    0.37393018    0.04860000
opls_144-470    H    0.46386986    0.39743993    0.19757018    0.03150000
opls_144-471    H    0.29805989    0.11393993    0.29264992    0.03150000
opls_146-472    H    0.50486998    0.46280000    0.17415016    0.05330000
opls_146-473    H    0.56679009    0.50543004    0.18644990    0.05340000
opls_146-474    H    0.61004001    0.38880000    0.30789013    0.05330000
opls_146-475    H    0.54810991    0.34610989    0.29558987    0.05340000
opls_146-476    H    0.19507000    0.99484982    0.31146011    0.05340000
opls_146-477    H    0.26011003    0.04110989    0.31718987    0.05330000
opls_146-478    H    0.20750999    0.16447986    0.19999020    0.05340000
opls_146-479    H    0.14295000    0.11766996    0.19270012    0.05330000
opls_140-480    H    0.47813989    0.25156007    0.28443008    0.04870000
opls_140-481    H    0.45454002    0.28924982    0.35296020    0.04860000
opls_140-482    H    0.34418010    0.13475018    0.24751980    0.04870000
opls_140-483    H    0.33871991    0.15722014    0.15667009    0.04860000
opls_140-484    H    0.41954002    0.35400989    0.32672982    0.04860000
opls_140-485    H    0.41440992    0.37280000    0.23428029    0.04860000
opls_140-486    H    0.30482007    0.22103993    0.13042022    0.04860000
opls_140-487    H    0.27904999    0.25737986    0.19851996    0.04870000
opls_140-488    H    0.47266988    0.27463993    0.15544006    0.04860000
opls_140-489    H    0.44425012    0.32786996    0.13487992    0.04870000
opls_140-490    H    0.31338988    0.18140000    0.34858004    0.04860000
opls_140-491    H    0.28597998    0.23536996    0.32873000    0.04870000
opls_144-492    H    0.96422008    0.89696007    0.19603989    0.03150000
opls_144-493    H    0.79767010    0.61960989    0.29900023    0.03150000
opls_146-494    H    0.69544986    0.49590989    0.18464990    0.05340000
opls_146-495    H    0.76264007    0.53772014    0.18498019    0.05340000
opls_146-496    H    0.71051986    0.65653993    0.32087995    0.05340000
opls_146-497    H    0.64317983    0.61530989    0.31887029    0.05340000
opls_146-498    H    0.99687991    0.96370000    0.29147995    0.05340000
opls_146-499    H    0.05962000    0.00455018    0.30329031    0.05330000
opls_146-500    H    0.11702004    0.88970989    0.19113981    0.05330000
opls_146-501    H    0.05435989    0.84897986    0.17937001    0.05340000
opls_140-502    H    0.84478007    0.63663993    0.25153016    0.04860000
opls_140-503    H    0.83771987    0.65603004    0.15993980    0.04860000
opls_140-504    H    0.98055999    0.75080000    0.28429996    0.04870000
opls_140-505    H    0.95549007    0.78857986    0.35144993    0.04860000
opls_140-506    H    0.80385994    0.72132014    0.13254998    0.04860000
opls_140-507    H    0.78096995    0.75822014    0.20282005    0.04870000
opls_140-508    H    0.92165985    0.85262014    0.32493983    0.04860000
opls_140-509    H    0.91664993    0.87390989    0.23335000    0.04860000
opls_140-510    H    0.81471989    0.68300000    0.35141990    0.04860000
opls_140-511    H    0.78723007    0.73699011    0.33085028    0.04870000
opls_140-512    H    0.97372012    0.77307986    0.15372013    0.04860000
opls_140-513    H    0.94536989    0.82604982    0.13259001    0.04860000
opls_144-514    H    0.79145991    0.39743993    0.30895001    0.03150000
opls_144-515    H    0.95726989    0.11393993    0.21387027    0.03150000
opls_146-516    H    0.75046009    0.46280000    0.33237003    0.05330000
opls_146-517    H    0.68853992    0.50543004    0.32006028    0.05340000
opls_146-518    H    0.64529000    0.38880000    0.19862005    0.05330000
opls_146-519    H    0.70721988    0.34610989    0.21092980    0.05340000
opls_146-520    H    0.06026001    0.99484982    0.19505008    0.05340000
opls_146-521    H    0.99522005    0.04110989    0.18932980    0.05330000
opls_146-522    H    0.04782007    0.16447986    0.30652999    0.05340000
opls_146-523    H    0.11238006    0.11766996    0.31382007    0.05330000
opls_140-524    H    0.77718989    0.25156007    0.22209012    0.04870000
opls_140-525    H    0.80078999    0.28924982    0.15354998    0.04860000
opls_140-526    H    0.91114998    0.13475018    0.25899987    0.04860000
opls_140-527    H    0.91660986    0.15722014    0.34985011    0.04860000
opls_140-528    H    0.83579006    0.35400989    0.17978985    0.04860000
opls_140-529    H    0.84092009    0.37280000    0.27222990    0.04860000
opls_140-530    H    0.95050994    0.22103993    0.37608997    0.04860000
opls_140-531    H    0.97628008    0.25737986    0.30800023    0.04870000
opls_140-532    H    0.78265990    0.27463993    0.35108013    0.04860000
opls_140-533    H    0.81108995    0.32786996    0.37164028    0.04870000
opls_140-534    H    0.94193990    0.18140000    0.15794015    0.04860000
opls_140-535    H    0.96935003    0.23536996    0.17778019    0.04870000
opls_140-536    H    0.13162009    0.97357986    0.19340021    0.05330000
opls_702-537    H    0.12802001    0.02642014    0.19324007    0.05330000
opls_144-538    H    0.70889000    0.89696007    0.68952023    0.03150000
opls_144-539    H    0.54233981    0.61960989    0.79249004    0.03150000
opls_146-540    H    0.44012007    0.49590989    0.67813023    0.05340000
opls_146-541    H    0.50731006    0.53772014    0.67847000    0.05340000
opls_146-542    H    0.45518984    0.65653993    0.81437029    0.05340000
opls_146-543    H    0.38785005    0.61530989    0.81235010    0.05340000
opls_146-544    H    0.74154989    0.96370000    0.78497029    0.05340000
opls_146-545    H    0.80429000    0.00455018    0.79678012    0.05330000
opls_146-546    H    0.86169002    0.88970989    0.68463015    0.05330000
opls_146-547    H    0.79902987    0.84897986    0.67286035    0.05340000
opls_140-548    H    0.58945001    0.63663993    0.74500996    0.04860000
opls_140-549    H    0.58237985    0.65603004    0.65343014    0.04860000
opls_140-550    H    0.72522997    0.75080000    0.77779030    0.04870000
opls_140-551    H    0.70015999    0.78857986    0.84493026    0.04860000
opls_140-552    H    0.54852986    0.72132014    0.62603031    0.04860000
opls_140-553    H    0.52563987    0.75822014    0.69630039    0.04870000
opls_140-554    H    0.66633006    0.85262014    0.81842016    0.04860000
opls_140-555    H    0.66130991    0.87390989    0.72684034    0.04870000
opls_140-556    H    0.55938982    0.68300000    0.84490024    0.04860000
opls_140-557    H    0.53190006    0.73699011    0.82434009    0.04870000
opls_140-558    H    0.71839005    0.77307986    0.64719994    0.04860000
opls_140-559    H    0.69003981    0.82604982    0.62607035    0.04860000
opls_144-560    H    0.53612984    0.39743993    0.80243034    0.03150000
opls_144-561    H    0.70193983    0.11393993    0.70735008    0.03150000
opls_146-562    H    0.49513001    0.46280000    0.82585036    0.05330000
opls_146-563    H    0.43320991    0.50543004    0.81355010    0.05340000
opls_146-564    H    0.38995998    0.38880000    0.69211039    0.05330000
opls_146-565    H    0.45188980    0.34610989    0.70441013    0.05340000
opls_146-566    H    0.80493000    0.99484982    0.68853989    0.05340000
opls_146-567    H    0.73988997    0.04110989    0.68281013    0.05330000
opls_146-568    H    0.79248999    0.16447986    0.80001032    0.05340000
opls_146-569    H    0.85704999    0.11766996    0.80730041    0.05330000
opls_140-570    H    0.52185983    0.25156007    0.71556992    0.04870000
opls_140-571    H    0.54545997    0.28924982    0.64704032    0.04860000
opls_140-572    H    0.65581990    0.13475018    0.75248020    0.04860000
opls_140-573    H    0.66127980    0.15722014    0.84332991    0.04860000
opls_140-574    H    0.58045998    0.35400989    0.67327018    0.04860000
opls_140-575    H    0.58559007    0.37280000    0.76572024    0.04860000
opls_140-576    H    0.69517992    0.22103993    0.86958031    0.04860000
opls_140-577    H    0.72095001    0.25737986    0.80148004    0.04870000
opls_140-578    H    0.52732984    0.27463993    0.84455994    0.04860000
opls_140-579    H    0.55574988    0.32786996    0.86512008    0.04870000
opls_140-580    H    0.68660984    0.18140000    0.65141996    0.04860000
opls_140-581    H    0.71402002    0.23536996    0.67127000    0.04870000
opls_144-582    H    0.03577992    0.89696007    0.80396011    0.03150000
opls_144-583    H    0.20232989    0.61960989    0.70100030    0.03150000
opls_146-584    H    0.30454985    0.49590989    0.81535010    0.05340000
opls_146-585    H    0.23735992    0.53772014    0.81502034    0.05340000
opls_146-586    H    0.28947985    0.65653993    0.67912005    0.05340000
opls_146-587    H    0.35681987    0.61530989    0.68113023    0.05340000
opls_146-588    H    0.00312009    0.96370000    0.70852005    0.05340000
opls_146-589    H    0.94037999    0.00455018    0.69671022    0.05330000
opls_146-590    H    0.88297996    0.88970989    0.80886019    0.05330000
opls_146-591    H    0.94563983    0.84897986    0.82062999    0.05340000
opls_140-592    H    0.15521992    0.63663993    0.74847037    0.04860000
opls_140-593    H    0.16227984    0.65603004    0.84006020    0.04860000
opls_140-594    H    0.01944001    0.75080000    0.71570004    0.04870000
opls_140-595    H    0.04450993    0.78857986    0.64855007    0.04860000
opls_140-596    H    0.19614006    0.72132014    0.86745002    0.04860000
opls_140-597    H    0.21903005    0.75822014    0.79717995    0.04870000
opls_140-598    H    0.07833986    0.85262014    0.67506017    0.04860000
opls_140-599    H    0.08335007    0.87390989    0.76665000    0.04860000
opls_140-600    H    0.18527982    0.68300000    0.64858010    0.04860000
opls_140-601    H    0.21276992    0.73699011    0.66915025    0.04870000
opls_140-602    H    0.02627987    0.77307986    0.84628039    0.04860000
opls_140-603    H    0.05462983    0.82604982    0.86740999    0.04860000
opls_144-604    H    0.20854009    0.39743993    0.69104999    0.03150000
opls_144-605    H    0.04272981    0.11393993    0.78613025    0.03150000
opls_146-606    H    0.24953991    0.46280000    0.66762997    0.05330000
opls_146-607    H    0.31146007    0.50543004    0.67994024    0.05340000
opls_146-608    H    0.35471000    0.38880000    0.80137995    0.05330000
opls_146-609    H    0.29277983    0.34610989    0.78907020    0.05340000
opls_146-610    H    0.93973999    0.99484982    0.80494992    0.05340000
opls_146-611    H    0.00477995    0.04110989    0.81067020    0.05330000
opls_146-612    H    0.95217993    0.16447986    0.69347001    0.05340000
opls_146-613    H    0.88761994    0.11766996    0.68617993    0.05330000
opls_140-614    H    0.22280981    0.25156007    0.77791041    0.04870000
opls_140-615    H    0.19921001    0.28924982    0.84645002    0.04860000
opls_140-616    H    0.08885002    0.13475018    0.74100013    0.04860000
opls_140-617    H    0.08338985    0.15722014    0.65014989    0.04860000
opls_140-618    H    0.16420994    0.35400989    0.82021015    0.04860000
opls_140-619    H    0.15907991    0.37280000    0.72777010    0.04860000
opls_140-620    H    0.04949006    0.22103993    0.62391003    0.04860000
opls_140-621    H    0.02371991    0.25737986    0.69200030    0.04870000
opls_140-622    H    0.21734010    0.27463993    0.64891987    0.04860000
opls_140-623    H    0.18891004    0.32786996    0.62836025    0.04870000
opls_140-624    H    0.05805980    0.18140000    0.84206038    0.04860000
opls_140-625    H    0.03064996    0.23536996    0.82222034    0.04870000
opls_140-626    H    0.86837990    0.97357986    0.80660032    0.05330000
opls_702-627    H    0.87197999    0.02642014    0.80675993    0.05330000
