#======================================================================
# Crystal Data Generated By AuToFF
#----------------------------------------------------------------------

data_AuToFF_phase_1

_cell_length_a                         52.2000
_cell_length_b                         52.2000
_cell_length_c                         6.5000
_cell_angle_alpha                      90.00
_cell_angle_beta                       90.00
_cell_angle_gamma                      120.00
_symmetry_space_group_name_H-M_alt     'P 1'
_symmetry_space_group_IT_number        1

loop_
_space_group_symop_operation_xyz
   'x, y, z'

loop_
   _atom_site_label
   _atom_site_type_symbol
   _atom_site_fract_x
   _atom_site_fract_y
   _atom_site_fract_z
   _atom_site_charge
opls_166-0    C    0.91868992    0.94656989    0.03257077    0.17590000
opls_507-1    C    0.72867986    0.87771988    0.17325077    0.21540000
opls_716-2    C    0.74325985    0.89756989    0.34831077    -0.16140000
opls_716-3    C    0.72210997    0.89561995    0.47048000    -0.16870000
opls_145-4    C    0.82287009    0.93458003    0.97804000    -0.02860000
opls_145-5    C    0.79196003    0.91914995    0.97174923    -0.12260000
opls_145-6    C    0.94500989    0.99949985    0.02708923    -0.23850000
opls_700-7    C    0.97268007    0.00019002    0.03029077    0.03400000
opls_166-8    C    0.41466991    0.71982986    0.97548923    0.17660000
opls_507-9    C    0.63921992    0.79162988    0.63949077    0.21440000
opls_507-10    C    0.60467989    0.78834982    0.84154000    0.21400000
opls_716-11    C    0.59008995    0.76855998    0.66634000    -0.16120000
opls_716-12    C    0.61122997    0.77054001    0.54390000    -0.16870000
opls_145-13    C    0.51102985    0.77681985    0.94226000    -0.04620000
opls_145-14    C    0.54195994    0.79208004    0.94538000    -0.12410000
opls_145-15    C    0.38813989    0.66694989    0.00186923    -0.25160000
opls_700-16    C    0.36057996    0.66636988    0.98766000    0.03380000
opls_166-17    C    0.41444999    0.69372987    0.99618923    0.17660000
opls_543-18    C    0.63879005    0.84660999    0.36936000    0.20600000
opls_543-19    C    0.60460004    0.81393993    0.16853077    0.18100000
opls_716-20    C    0.59045007    0.82133002    0.31893077    -0.16910000
opls_716-21    C    0.61213009    0.84200999    0.44535077    -0.19730000
opls_145-22    C    0.51045986    0.73188984    0.04544000    -0.04850000
opls_145-23    C    0.54137998    0.74726992    0.05116000    -0.12430000
opls_145-24    C    0.38858988    0.72072995    0.96885077    -0.25050000
opls_700-25    C    0.36080995    0.69399001    0.98242000    0.03380000
opls_166-26    C    0.91880994    0.97269996    0.02714923    0.17590000
opls_543-27    C    0.69456999    0.81957983    0.64468000    0.20600000
opls_543-28    C    0.72877007    0.85217998    0.84585077    0.18100000
opls_716-29    C    0.74291984    0.84499983    0.69404000    -0.16910000
opls_716-30    C    0.72122994    0.82435989    0.56750923    -0.19730000
opls_145-31    C    0.82245990    0.88917995    0.06396923    -0.04850000
opls_145-32    C    0.79153987    0.87384986    0.06107077    -0.12550000
opls_145-33    C    0.94476996    0.94573992    0.03369077    -0.24330000
opls_142-34    C    0.66629991    0.86658985    0.45638000    -0.25470000
opls_142-35    C    0.66704003    0.79959001    0.55776000    -0.25450000
opls_145-36    C    0.83827992    0.91964988    0.02310923    -0.25620000
opls_700-37    C    0.59004002    0.79359000    0.00548000    -0.08170000
opls_145-38    C    0.49510990    0.74660984    0.99187077    -0.25250000
opls_700-39    C    0.55727991    0.77743990    0.00118923    0.06950000
opls_507-40    C    0.69412996    0.87448981    0.37502000    0.21440000
opls_700-41    C    0.74333996    0.87248988    0.00922923    -0.08520000
opls_700-42    C    0.77611988    0.88870988    0.01338000    0.06490000
opls_700-43    C    0.97256991    0.97260993    0.03118000    0.03400000
opls_166-44    C    0.05342990    0.97211996    0.03257077    0.17590000
opls_507-45    C    0.12228001    0.85096003    0.17325077    0.21550000
opls_716-46    C    0.10243005    0.84568999    0.34831077    -0.16140000
opls_716-47    C    0.10438000    0.82648989    0.47048000    -0.17720000
opls_145-48    C    0.06542001    0.88827986    0.97804000    -0.04850000
opls_145-49    C    0.08085000    0.87280997    0.97174923    -0.11910000
opls_145-50    C    0.00049995    0.94549991    0.02708923    -0.23760000
opls_700-51    C    0.99980985    0.97248982    0.03029077    0.03400000
opls_166-52    C    0.28016994    0.69483988    0.97548923    0.17660000
opls_507-53    C    0.20837007    0.84757998    0.63949077    0.21440000
opls_507-54    C    0.21164998    0.81632985    0.84154000    0.21390000
opls_716-55    C    0.23143990    0.82152999    0.66634000    -0.16440000
opls_716-56    C    0.22945986    0.84067988    0.54390000    -0.16320000
opls_145-57    C    0.22317994    0.73422003    0.94226000    -0.04720000
opls_145-58    C    0.20792005    0.74986999    0.94538000    -0.12260000
opls_145-59    C    0.33304990    0.72118984    0.00186923    -0.25160000
opls_700-60    C    0.33363004    0.69420989    0.98766000    0.03380000
opls_166-61    C    0.30626996    0.72071999    0.99618923    0.17660000
opls_543-62    C    0.15339001    0.79218002    0.36936000    0.20610000
opls_543-63    C    0.18606002    0.79065989    0.16853077    0.18100000
opls_716-64    C    0.17866990    0.76910991    0.31893077    -0.16910000
opls_716-65    C    0.15799004    0.77011994    0.44535077    -0.19730000
opls_145-66    C    0.26811012    0.77857004    0.04544000    -0.04210000
opls_145-67    C    0.25273001    0.79410983    0.05116000    -0.12430000
opls_145-68    C    0.27927001    0.66784998    0.96885077    -0.25050000
opls_700-69    C    0.30601002    0.66682004    0.98242000    0.03380000
opls_166-70    C    0.02730002    0.94611000    0.02714923    0.17590000
opls_543-71    C    0.18043004    0.87498996    0.64468000    0.20600000
opls_543-72    C    0.14783003    0.87659991    0.84585077    0.18100000
opls_716-73    C    0.15500006    0.89793001    0.69404000    -0.16970000
opls_716-74    C    0.17563997    0.89687994    0.56750923    -0.19730000
opls_145-75    C    0.11082007    0.93327999    0.06396923    -0.04710000
opls_145-76    C    0.12614987    0.91767981    0.06107077    -0.12550000
opls_145-77    C    0.05426002    0.99903001    0.03369077    -0.24330000
opls_142-78    C    0.13340993    0.79971986    0.45638000    -0.26940000
opls_142-79    C    0.20041001    0.86744990    0.55776000    -0.25450000
opls_145-80    C    0.08035000    0.91863985    0.02310923    -0.25610000
opls_700-81    C    0.20641005    0.79644998    0.00548000    -0.08340000
opls_145-82    C    0.25338995    0.74849983    0.99187077    -0.25250000
opls_700-83    C    0.22256003    0.77984995    0.00118923    0.06650000
opls_507-84    C    0.12551003    0.81964995    0.37502000    0.21720000
opls_700-85    C    0.12750998    0.87084985    0.00922923    -0.08520000
opls_700-86    C    0.11128998    0.88740985    0.01338000    0.06440000
opls_700-87    C    0.02738994    0.99995996    0.03118000    0.03400000
opls_166-88    C    0.02788006    0.08130993    0.03257077    0.17590000
opls_507-89    C    0.14904001    0.27131987    0.17325077    0.21540000
opls_716-90    C    0.15430999    0.25673990    0.34831077    -0.16140000
opls_716-91    C    0.17350991    0.27788994    0.47048000    -0.16320000
opls_145-92    C    0.11171995    0.17712994    0.97804000    -0.04850000
opls_145-93    C    0.12718996    0.20804008    0.97174923    -0.12260000
opls_145-94    C    0.05450001    0.05499006    0.02708923    -0.23760000
opls_700-95    C    0.02750997    0.02731995    0.03029077    0.03400000
opls_166-96    C    0.30516004    0.58533004    0.97548923    0.17660000
opls_507-97    C    0.15242006    0.36077996    0.63949077    0.21720000
opls_507-98    C    0.18366990    0.39531988    0.84154000    0.21390000
opls_716-99    C    0.17846996    0.40991003    0.66634000    -0.16120000
opls_716-100    C    0.15932003    0.38876994    0.54390000    -0.16870000
opls_145-101    C    0.26578005    0.48897007    0.94226000    -0.04210000
opls_145-102    C    0.25012997    0.45804002    0.94538000    -0.12410000
opls_145-103    C    0.27881010    0.61186006    0.00186923    -0.25050000
opls_700-104    C    0.30579008    0.63942001    0.98766000    0.03380000
opls_166-105    C    0.27928990    0.58554992    0.99618923    0.17660000
opls_543-106    C    0.20781993    0.36120998    0.36936000    0.20600000
opls_543-107    C    0.20934002    0.39539996    0.16853077    0.18100000
opls_716-108    C    0.23088989    0.40954990    0.31893077    -0.16910000
opls_716-109    C    0.22988005    0.38787007    0.44535077    -0.19730000
opls_145-110    C    0.22142991    0.48953990    0.04544000    -0.04850000
opls_145-111    C    0.20589009    0.45862003    0.05116000    -0.12430000
opls_145-112    C    0.33214997    0.61140990    0.96885077    -0.25050000
opls_700-113    C    0.33318004    0.63918996    0.98242000    0.03380000
opls_166-114    C    0.05389004    0.08119004    0.02714923    0.17590000
opls_543-115    C    0.12501001    0.30542999    0.64468000    0.20600000
opls_543-116    C    0.12340009    0.27123006    0.84585077    0.18100000
opls_716-117    C    0.10207999    0.25707990    0.69404000    -0.16910000
opls_716-118    C    0.10312001    0.27876990    0.56750923    -0.19730000
opls_145-119    C    0.06672003    0.17754006    0.06396923    -0.03600000
opls_145-120    C    0.08232000    0.20845993    0.06107077    -0.12550000
opls_145-121    C    0.00097002    0.05523007    0.03369077    -0.23850000
opls_142-122    C    0.20028009    0.33370002    0.45638000    -0.25450000
opls_142-123    C    0.13254985    0.33295986    0.55776000    -0.25470000
opls_145-124    C    0.08136000    0.16172000    0.02310923    -0.25630000
opls_700-125    C    0.20354993    0.40996002    0.00548000    -0.08170000
opls_145-126    C    0.25149993    0.50488989    0.99187077    -0.25080000
opls_700-127    C    0.22015995    0.44271989    0.00118923    0.06650000
opls_507-128    C    0.18034993    0.30586997    0.37502000    0.21440000
opls_700-129    C    0.12914995    0.25666004    0.00922923    -0.08520000
opls_700-130    C    0.11259002    0.22388005    0.01338000    0.06440000
opls_700-131    C    0.00003995    0.02744006    0.03118000    0.03400000
opls_166-132    C    0.08130996    0.05342989    0.53256923    0.17590000
opls_507-133    C    0.27132003    0.12227990    0.67325077    0.21540000
opls_716-134    C    0.25674004    0.10242989    0.84830923    -0.16140000
opls_716-135    C    0.27789003    0.10438005    0.97048000    -0.16870000
opls_145-136    C    0.17712991    0.06541997    0.47804000    -0.02860000
opls_145-137    C    0.20803997    0.08085005    0.47174923    -0.12260000
opls_145-138    C    0.05499000    0.00049993    0.52709077    -0.23840000
opls_700-139    C    0.02731993    0.99980998    0.53028923    0.03370000
opls_166-140    C    0.58532998    0.28016992    0.47549077    0.17660000
opls_507-141    C    0.36077997    0.20836990    0.13948923    0.21440000
opls_507-142    C    0.39532000    0.21164995    0.34154000    0.21390000
opls_716-143    C    0.40991005    0.23144002    0.16634000    -0.16120000
opls_716-144    C    0.38877003    0.22945999    0.04390000    -0.16870000
opls_145-145    C    0.48897004    0.22318988    0.44226000    -0.04500000
opls_145-146    C    0.45804006    0.20791996    0.44538000    -0.12430000
opls_145-147    C    0.61186000    0.33304989    0.50186923    -0.25160000
opls_700-148    C    0.63941993    0.33362990    0.48766000    0.03380000
opls_166-149    C    0.58554990    0.30626991    0.49619077    0.17660000
opls_543-150    C    0.36120994    0.15339996    0.86936000    0.20600000
opls_543-151    C    0.39539996    0.18606007    0.66852923    0.18100000
opls_716-152    C    0.40954993    0.17866998    0.81892923    -0.16910000
opls_716-153    C    0.38786991    0.15799001    0.94535077    -0.19730000
opls_145-154    C    0.48954003    0.26810994    0.54544000    -0.04210000
opls_145-155    C    0.45862002    0.25273008    0.55116000    -0.12260000
opls_145-156    C    0.61140993    0.27927005    0.46884923    -0.25050000
opls_700-157    C    0.63919005    0.30600999    0.48242000    0.03380000
opls_166-158    C    0.08119006    0.02730004    0.52714923    0.17590000
opls_543-159    C    0.30542990    0.18042991    0.14468000    0.20600000
opls_543-160    C    0.27122993    0.14782997    0.34585077    0.18100000
opls_716-161    C    0.25708005    0.15499995    0.19404000    -0.16970000
opls_716-162    C    0.27875998    0.17563989    0.06751077    -0.19730000
opls_145-163    C    0.17754010    0.11082005    0.56397077    -0.04850000
opls_145-164    C    0.20846002    0.12614992    0.56107077    -0.12550000
opls_145-165    C    0.05523004    0.05426008    0.53368923    -0.23760000
opls_142-166    C    0.33369998    0.13340993    0.95638000    -0.25450000
opls_142-167    C    0.33295997    0.20040999    0.05776000    -0.25450000
opls_145-168    C    0.16171997    0.08034990    0.52311077    -0.25630000
opls_700-169    C    0.40995998    0.20641000    0.50548000    -0.08170000
opls_145-170    C    0.50488999    0.25338994    0.49186923    -0.25080000
opls_700-171    C    0.44272009    0.22257006    0.50118923    0.06950000
opls_507-172    C    0.30586993    0.12550997    0.87502000    0.21440000
opls_700-173    C    0.25665993    0.12750990    0.50922923    -0.08520000
opls_700-174    C    0.22388001    0.11128990    0.51338000    0.06490000
opls_700-175    C    0.02744005    0.02739007    0.53118000    0.03400000
opls_166-176    C    0.94657010    0.02788004    0.53256923    0.17590000
opls_507-177    C    0.87771999    0.14903997    0.67325077    0.21540000
opls_716-178    C    0.89756995    0.15431001    0.84830923    -0.16140000
opls_716-179    C    0.89561989    0.17350989    0.97048000    -0.17720000
opls_145-180    C    0.93457988    0.11171992    0.47804000    -0.04850000
opls_145-181    C    0.91915000    0.12719003    0.47174923    -0.11910000
opls_145-182    C    0.99950005    0.05450009    0.52709077    -0.23760000
opls_700-183    C    0.00019004    0.02750996    0.53028923    0.03390000
opls_166-184    C    0.71982995    0.30515990    0.47549077    0.17660000
opls_507-185    C    0.79162993    0.15242002    0.13948923    0.21440000
opls_507-186    C    0.78834991    0.18366993    0.34154000    0.21390000
opls_716-187    C    0.76856010    0.17847001    0.16634000    -0.16440000
opls_716-188    C    0.77054003    0.15931990    0.04390000    -0.16320000
opls_145-189    C    0.77682006    0.26577997    0.44226000    -0.04720000
opls_145-190    C    0.79207995    0.25013001    0.44538000    -0.12260000
opls_145-191    C    0.66694999    0.27880994    0.50186923    -0.24780000
opls_700-192    C    0.66636985    0.30578989    0.48766000    0.03380000
opls_166-193    C    0.69373004    0.27928996    0.49619077    0.17660000
opls_543-194    C    0.84660003    0.20781998    0.86936000    0.20600000
opls_543-195    C    0.81393987    0.20933989    0.66852923    0.18100000
opls_716-196    C    0.82132999    0.23088987    0.81892923    -0.16910000
opls_716-197    C    0.84200996    0.22988006    0.94535077    -0.19730000
opls_145-198    C    0.73188988    0.22142996    0.54544000    -0.04850000
opls_145-199    C    0.74726988    0.20588995    0.55116000    -0.12430000
opls_145-200    C    0.72072999    0.33215002    0.46884923    -0.25050000
opls_700-201    C    0.69398998    0.33317996    0.48242000    0.03380000
opls_166-202    C    0.97269998    0.05389000    0.52714923    0.17600000
opls_543-203    C    0.81957992    0.12501004    0.14468000    0.20600000
opls_543-204    C    0.85218012    0.12340009    0.34585077    0.18100000
opls_716-205    C    0.84499994    0.10206999    0.19404000    -0.16910000
opls_716-206    C    0.82436003    0.10312006    0.06751077    -0.19730000
opls_145-207    C    0.88917993    0.06672001    0.56397077    -0.04850000
opls_145-208    C    0.87385002    0.08231997    0.56107077    -0.12550000
opls_145-209    C    0.94573998    0.00096999    0.53368923    -0.24330000
opls_142-210    C    0.86658996    0.20027992    0.95638000    -0.25230000
opls_142-211    C    0.79958999    0.13255010    0.05776000    -0.27230000
opls_145-212    C    0.91964989    0.08135993    0.52311077    -0.25610000
opls_700-213    C    0.79358995    0.20355002    0.50548000    -0.08340000
opls_145-214    C    0.74660994    0.25149995    0.49186923    -0.25250000
opls_700-215    C    0.77743997    0.22015005    0.50118923    0.06650000
opls_507-216    C    0.87448997    0.18035005    0.87502000    0.21730000
opls_700-217    C    0.87248991    0.12914993    0.50922923    -0.08520000
opls_700-218    C    0.88870991    0.11258993    0.51338000    0.06440000
opls_700-219    C    0.97261006    0.00004004    0.53118000    0.03400000
opls_166-220    C    0.97211983    0.91868984    0.53256923    0.17590000
opls_507-221    C    0.85095988    0.72867991    0.67325077    0.21550000
opls_716-222    C    0.84568990    0.74325988    0.84830923    -0.16140000
opls_716-223    C    0.82648998    0.72210984    0.97048000    -0.16870000
opls_145-224    C    0.88827994    0.82286984    0.47804000    -0.04850000
opls_145-225    C    0.87281004    0.79195992    0.47174923    -0.12260000
opls_145-226    C    0.94549999    0.94500994    0.52709077    -0.23850000
opls_700-227    C    0.97248992    0.97267983    0.53028923    0.03400000
opls_166-228    C    0.69483996    0.41466996    0.47549077    0.17660000
opls_507-229    C    0.84757994    0.63922004    0.13948923    0.21730000
opls_507-230    C    0.81632999    0.60467990    0.34154000    0.21390000
opls_716-231    C    0.82153004    0.59008997    0.16634000    -0.16120000
opls_716-232    C    0.84067986    0.61122984    0.04390000    -0.16870000
opls_145-233    C    0.73421995    0.51102993    0.44226000    -0.04210000
opls_145-234    C    0.74987003    0.54195998    0.44538000    -0.12430000
opls_145-235    C    0.72118990    0.38813994    0.50186923    -0.25050000
opls_700-236    C    0.69420992    0.36057999    0.48766000    0.03380000
opls_166-237    C    0.72070999    0.41444986    0.49619077    0.17660000
opls_543-238    C    0.79218007    0.63879002    0.86936000    0.20600000
opls_543-239    C    0.79065998    0.60460004    0.66852923    0.18110000
opls_716-240    C    0.76911000    0.59044988    0.81892923    -0.16910000
opls_716-241    C    0.77011995    0.61212993    0.94535077    -0.19720000
opls_145-242    C    0.77857009    0.51047006    0.54544000    -0.04850000
opls_145-243    C    0.79410991    0.54137997    0.55116000    -0.12220000
opls_145-244    C    0.66784992    0.38858988    0.46884923    -0.25050000
opls_700-245    C    0.66681996    0.36081004    0.48242000    0.03380000
opls_166-246    C    0.94610996    0.91880996    0.52714923    0.17590000
opls_543-247    C    0.87498999    0.69457001    0.14468000    0.20600000
opls_543-248    C    0.87659991    0.72876994    0.34585077    0.18100000
opls_716-249    C    0.89792987    0.74291988    0.19404000    -0.16910000
opls_716-250    C    0.89687988    0.72122988    0.06751077    -0.19730000
opls_145-251    C    0.93327997    0.82245994    0.56397077    -0.02860000
opls_145-252    C    0.91767989    0.79153985    0.56107077    -0.12550000
opls_145-253    C    0.99902998    0.94476993    0.53368923    -0.24330000
opls_142-254    C    0.79971991    0.66629998    0.95638000    -0.25450000
opls_142-255    C    0.86745003    0.66703992    0.05776000    -0.25470000
opls_145-256    C    0.91864000    0.83828000    0.52311077    -0.25630000
opls_700-257    C    0.79645007    0.59003998    0.50548000    -0.08170000
opls_145-258    C    0.74849996    0.49510989    0.49186923    -0.25080000
opls_700-259    C    0.77984991    0.55727989    0.50118923    0.06650000
opls_507-260    C    0.81965007    0.69413003    0.87502000    0.21440000
opls_700-261    C    0.87085005    0.74333996    0.50922923    -0.08520000
opls_700-262    C    0.88740998    0.77611995    0.51338000    0.06440000
opls_700-263    C    0.99996004    0.97256989    0.53118000    0.03400000
opls_542-264    N    0.69910992    0.86430987    0.19774923    -0.33800000
opls_542-265    N    0.63425004    0.80174988    0.81704000    -0.33530000
opls_542-266    N    0.69926996    0.83695984    0.81064000    -0.24570000
opls_542-267    N    0.63408990    0.82904992    0.20439077    -0.24570000
opls_542-268    N    0.13569002    0.83479997    0.19774923    -0.33530000
opls_542-269    N    0.19824993    0.83249986    0.81704000    -0.33470000
opls_542-270    N    0.16304003    0.86230994    0.81064000    -0.24570000
opls_542-271    N    0.17095002    0.80503989    0.20439077    -0.24560000
opls_542-272    N    0.16519995    0.30088994    0.19774923    -0.33530000
opls_542-273    N    0.16749992    0.36575004    0.81704000    -0.33480000
opls_542-274    N    0.13769010    0.30073001    0.81064000    -0.24570000
opls_542-275    N    0.19495997    0.36590997    0.20439077    -0.24560000
opls_542-276    N    0.30088997    0.13568991    0.69775077    -0.33790000
opls_542-277    N    0.36575005    0.19824990    0.31704000    -0.33530000
opls_542-278    N    0.30072993    0.16303994    0.31064000    -0.24570000
opls_542-279    N    0.36591010    0.17095008    0.70438923    -0.24570000
opls_542-280    N    0.86430998    0.16520003    0.69775077    -0.33530000
opls_542-281    N    0.80174996    0.16749992    0.31704000    -0.33480000
opls_542-282    N    0.83695997    0.13769006    0.31064000    -0.24550000
opls_542-283    N    0.82904987    0.19495989    0.70438923    -0.24570000
opls_542-284    N    0.83479994    0.69910984    0.69775077    -0.33530000
opls_542-285    N    0.83249989    0.63424996    0.31704000    -0.33480000
opls_542-286    N    0.86230990    0.69926999    0.31064000    -0.24570000
opls_542-287    N    0.80504003    0.63409003    0.70438923    -0.24570000
opls_167-288    O    0.44296007    0.74415002    0.96680000    -0.35200000
opls_167-289    O    0.89067989    0.96913986    0.02187077    -0.35180000
opls_167-290    O    0.89046990    0.92212983    0.03494000    -0.35180000
opls_167-291    O    0.44255993    0.69728002    0.00734000    -0.35180000
opls_167-292    O    0.25584996    0.69880988    0.96680000    -0.35200000
opls_167-293    O    0.03085998    0.92153987    0.02187077    -0.35180000
opls_167-294    O    0.07786999    0.96833002    0.03494000    -0.35180000
opls_167-295    O    0.30272005    0.74527994    0.00734000    -0.35190000
opls_167-296    O    0.30118986    0.55703988    0.96680000    -0.35200000
opls_167-297    O    0.07846002    0.10932005    0.02187077    -0.35180000
opls_167-298    O    0.03166997    0.10952997    0.03494000    -0.35180000
opls_167-299    O    0.25472002    0.55744004    0.00734000    -0.35190000
opls_167-300    O    0.55703993    0.25584998    0.46680000    -0.35190000
opls_167-301    O    0.10932000    0.03085992    0.52186923    -0.35170000
opls_167-302    O    0.10952999    0.07786994    0.53494000    -0.35180000
opls_167-303    O    0.55744007    0.30271998    0.50734000    -0.35190000
opls_167-304    O    0.74414993    0.30118989    0.46680000    -0.35200000
opls_167-305    O    0.96913991    0.07845990    0.52186923    -0.35180000
opls_167-306    O    0.92213001    0.03166998    0.53494000    -0.35180000
opls_167-307    O    0.69727995    0.25472006    0.50734000    -0.35200000
opls_167-308    O    0.69881003    0.44295990    0.46680000    -0.35200000
opls_167-309    O    0.92153998    0.89067995    0.52186923    -0.35180000
opls_167-310    O    0.96833003    0.89047003    0.53494000    -0.35180000
opls_167-311    O    0.74527998    0.44255996    0.50734000    -0.35200000
MOF2_B_2-312    B    0.87285998    0.93683988    0.02740000    0.57230000
MOF2_B_2-313    B    0.46049997    0.72948001    0.98790923    0.57230000
MOF2_B_2-314    B    0.06315993    0.93601986    0.02740000    0.57230000
MOF2_B_2-315    B    0.27051988    0.73101983    0.98790923    0.57240000
MOF2_B_2-316    B    0.06397998    0.12714004    0.02740000    0.57230000
MOF2_B_2-317    B    0.26898004    0.53949994    0.98790923    0.57230000
MOF2_B_2-318    B    0.12713991    0.06315990    0.52740000    0.57230000
MOF2_B_2-319    B    0.53950003    0.27051999    0.48791077    0.57230000
MOF2_B_2-320    B    0.93683996    0.06397992    0.52740000    0.57230000
MOF2_B_2-321    B    0.72948001    0.26897995    0.48791077    0.57230000
MOF2_B_2-322    B    0.93602002    0.87285996    0.52740000    0.57230000
MOF2_B_2-323    B    0.73101996    0.46050006    0.48791077    0.57240000
opls_547-324    H    0.76673995    0.91105997    0.37744000    0.11760000
opls_547-325    H    0.72533004    0.90718000    0.61483077    0.11760000
opls_146-326    H    0.83464993    0.95809986    0.94583077    0.11460000
opls_146-327    H    0.78032998    0.93088985    0.93512923    0.11780000
opls_146-328    H    0.94265993    0.01879994    0.02252000    0.09700000
opls_547-329    H    0.56659989    0.75507985    0.63743077    0.12050000
opls_547-330    H    0.60800003    0.75903990    0.39932000    0.12070000
opls_146-331    H    0.49962997    0.78858983    0.89959077    0.11890000
opls_146-332    H    0.55398990    0.81533000    0.90514923    0.11310000
opls_146-333    H    0.39010997    0.64752990    0.02080000    0.10840000
opls_547-334    H    0.56693996    0.81278988    0.33648923    0.12070000
opls_547-335    H    0.60873000    0.85249985    0.57798923    0.11810000
opls_146-336    H    0.49863000    0.70859984    0.08452000    0.11340000
opls_146-337    H    0.55295992    0.73569991    0.09424000    0.11310000
opls_146-338    H    0.39089993    0.74227993    0.95020000    0.10040000
opls_545-339    H    0.68335992    0.83979991    0.88452923    0.26750000
opls_547-340    H    0.76643003    0.85369990    0.67524923    0.12260000
opls_547-341    H    0.72462992    0.81402996    0.43391077    0.11830000
opls_146-342    H    0.83391993    0.87722990    0.09984923    0.11920000
opls_146-343    H    0.77956989    0.85038998    0.09492000    0.11580000
opls_146-344    H    0.94224995    0.92401983    0.03789077    0.09710000
opls_144-345    H    0.66607001    0.87764998    0.59694000    0.11590000
opls_144-346    H    0.66726992    0.78862987    0.41669077    0.11590000
opls_545-347    H    0.64995993    0.82598001    0.13199077    0.26660000
opls_547-348    H    0.08893996    0.85567992    0.37744000    0.11760000
opls_547-349    H    0.09281999    0.81815990    0.61483077    0.12050000
opls_146-350    H    0.04190005    0.87654991    0.94583077    0.11460000
opls_146-351    H    0.06910998    0.84943989    0.93512923    0.11770000
opls_146-352    H    0.98119987    0.92384994    0.02252000    0.09700000
opls_547-353    H    0.24491992    0.81152988    0.63743077    0.11740000
opls_547-354    H    0.24096001    0.84895987    0.39932000    0.11760000
opls_146-355    H    0.21141002    0.71104993    0.89959077    0.11890000
opls_146-356    H    0.18466998    0.73865988    0.90514923    0.11310000
opls_146-357    H    0.35247002    0.74257989    0.02080000    0.10840000
opls_547-358    H    0.18721001    0.75414990    0.33648923    0.12170000
opls_547-359    H    0.14750001    0.75622991    0.57798923    0.11800000
opls_146-360    H    0.29140997    0.79002989    0.08452000    0.11520000
opls_146-361    H    0.26429994    0.81726003    0.09424000    0.11450000
opls_146-362    H    0.25771997    0.64862001    0.95020000    0.09920000
opls_545-363    H    0.16019992    0.84355999    0.88452923    0.26740000
opls_547-364    H    0.14630995    0.91273982    0.67524923    0.12150000
opls_547-365    H    0.18596985    0.91059986    0.43391077    0.11790000
opls_146-366    H    0.12277004    0.95667993    0.09984923    0.11310000
opls_146-367    H    0.14960988    0.92917992    0.09492000    0.11580000
opls_146-368    H    0.07597989    0.01822989    0.03789077    0.09710000
opls_144-369    H    0.12235001    0.78841995    0.59694000    0.11720000
opls_144-370    H    0.21136994    0.87863988    0.41669077    0.11590000
opls_545-371    H    0.17402000    0.82397985    0.13199077    0.26660000
opls_547-372    H    0.14431998    0.23325989    0.37744000    0.11760000
opls_547-373    H    0.18184001    0.27467005    0.61483077    0.12070000
opls_146-374    H    0.12345010    0.16535001    0.94583077    0.11580000
opls_146-375    H    0.15055992    0.21967003    0.93512923    0.11770000
opls_146-376    H    0.07615005    0.05733995    0.02252000    0.09700000
opls_547-377    H    0.18846992    0.43340000    0.63743077    0.12050000
opls_547-378    H    0.15104004    0.39200001    0.39932000    0.11750000
opls_146-379    H    0.28894993    0.50036997    0.89959077    0.11890000
opls_146-380    H    0.26134001    0.44600990    0.90514923    0.11650000
opls_146-381    H    0.25741990    0.60988999    0.02080000    0.10840000
opls_547-382    H    0.24584992    0.43306000    0.33648923    0.12020000
opls_547-383    H    0.24377007    0.39127002    0.57798923    0.11800000
opls_146-384    H    0.20997008    0.50137005    0.08452000    0.11340000
opls_146-385    H    0.18273995    0.44704006    0.09424000    0.11450000
opls_146-386    H    0.35138011    0.60910006    0.95020000    0.11090000
opls_545-387    H    0.15643986    0.31663987    0.88452923    0.26740000
opls_547-388    H    0.08726010    0.23357002    0.67524923    0.12090000
opls_547-389    H    0.08939992    0.27536995    0.43391077    0.11750000
opls_146-390    H    0.04332007    0.16607999    0.09984923    0.11310000
opls_146-391    H    0.07081992    0.22042988    0.09492000    0.11890000
opls_146-392    H    0.98177005    0.05775006    0.03789077    0.09710000
opls_144-393    H    0.21157998    0.33393008    0.59694000    0.11630000
opls_144-394    H    0.12136003    0.33273003    0.41669077    0.11590000
opls_545-395    H    0.17601996    0.35003992    0.13199077    0.26660000
opls_547-396    H    0.23326005    0.08894003    0.87744000    0.11760000
opls_547-397    H    0.27466000    0.09282000    0.11482923    0.12050000
opls_146-398    H    0.16534996    0.04189992    0.44583077    0.11470000
opls_146-399    H    0.21966991    0.06910993    0.43513077    0.11770000
opls_146-400    H    0.05734007    0.98120006    0.52252000    0.09700000
opls_547-401    H    0.43340000    0.24491993    0.13742923    0.12050000
opls_547-402    H    0.39199986    0.24095988    0.89932000    0.12070000
opls_146-403    H    0.50035995    0.21140994    0.39959077    0.11890000
opls_146-404    H    0.44601010    0.18467000    0.40514923    0.11310000
opls_146-405    H    0.60988992    0.35246988    0.52080000    0.10840000
opls_547-406    H    0.43305993    0.18720990    0.83649077    0.12070000
opls_547-407    H    0.39126989    0.14749993    0.07799077    0.11800000
opls_146-408    H    0.50136989    0.29140989    0.58452000    0.11520000
opls_146-409    H    0.44703997    0.26429987    0.59424000    0.11310000
opls_146-410    H    0.60910007    0.25772007    0.45020000    0.10040000
opls_545-411    H    0.31664008    0.16020009    0.38453077    0.26740000
opls_547-412    H    0.23356997    0.14631006    0.17524923    0.12090000
opls_547-413    H    0.27537008    0.18597004    0.93391077    0.11790000
opls_146-414    H    0.16608007    0.12277010    0.59984923    0.11920000
opls_146-415    H    0.22043011    0.14961002    0.59492000    0.11580000
opls_146-416    H    0.05774994    0.07597995    0.53788923    0.09710000
opls_144-417    H    0.33392999    0.12235002    0.09694000    0.11590000
opls_144-418    H    0.33272997    0.21136991    0.91668923    0.11590000
opls_545-419    H    0.35004007    0.17401999    0.63199077    0.26660000
opls_547-420    H    0.91106004    0.14432008    0.87744000    0.11770000
opls_547-421    H    0.90717990    0.18183988    0.11482923    0.12050000
opls_146-422    H    0.95809995    0.12345009    0.44583077    0.11460000
opls_146-423    H    0.93088990    0.15055989    0.43513077    0.11770000
opls_146-424    H    0.01880013    0.07615006    0.52252000    0.09700000
opls_547-425    H    0.75507997    0.18846990    0.13742923    0.11740000
opls_547-426    H    0.75903988    0.15103991    0.89932000    0.11760000
opls_146-427    H    0.78858998    0.28895007    0.39959077    0.11890000
opls_146-428    H    0.81533002    0.26135007    0.40514923    0.11310000
opls_146-429    H    0.64752987    0.25741989    0.52080000    0.10840000
opls_547-430    H    0.81278988    0.24584988    0.83649077    0.12170000
opls_547-431    H    0.85249988    0.24376987    0.07799077    0.11800000
opls_146-432    H    0.70859989    0.20996989    0.58452000    0.11340000
opls_146-433    H    0.73570006    0.18273997    0.59424000    0.11320000
opls_146-434    H    0.74228003    0.35137999    0.45020000    0.09920000
opls_545-435    H    0.83980008    0.15644001    0.38453077    0.26740000
opls_547-436    H    0.85369990    0.08725996    0.17524923    0.12260000
opls_547-437    H    0.81403003    0.08939992    0.93391077    0.11790000
opls_146-438    H    0.87724011    0.04332007    0.59984923    0.11310000
opls_146-439    H    0.85039012    0.07082008    0.59492000    0.11580000
opls_146-440    H    0.92402011    0.98177011    0.53788923    0.09710000
opls_144-441    H    0.87764999    0.21158005    0.09694000    0.11720000
opls_144-442    H    0.78862995    0.12135990    0.91668923    0.11590000
opls_545-443    H    0.82597989    0.17601992    0.63199077    0.26660000
opls_547-444    H    0.85567991    0.76673989    0.87744000    0.11770000
opls_547-445    H    0.81815999    0.72533990    0.11482923    0.12050000
opls_146-446    H    0.87654990    0.83464999    0.44583077    0.11580000
opls_146-447    H    0.84943989    0.78032997    0.43513077    0.11770000
opls_146-448    H    0.92385999    0.94265983    0.52252000    0.09710000
opls_547-449    H    0.81153008    0.56660000    0.13742923    0.12050000
opls_547-450    H    0.84895996    0.60799999    0.89932000    0.11750000
opls_146-451    H    0.71105007    0.49963003    0.39959077    0.11890000
opls_146-452    H    0.73865988    0.55398988    0.40514923    0.11650000
opls_146-453    H    0.74258010    0.39011001    0.52080000    0.10840000
opls_547-454    H    0.75415008    0.56694000    0.83649077    0.12020000
opls_547-455    H    0.75622993    0.60872998    0.07799077    0.11810000
opls_146-456    H    0.79002992    0.49862995    0.58452000    0.11890000
opls_146-457    H    0.81726005    0.55295994    0.59424000    0.11440000
opls_146-458    H    0.64861989    0.39089994    0.45020000    0.11090000
opls_545-459    H    0.84356003    0.68335990    0.38453077    0.26740000
opls_547-460    H    0.91273990    0.76642998    0.17524923    0.12260000
opls_547-461    H    0.91059997    0.72462983    0.93391077    0.11750000
opls_146-462    H    0.95667993    0.83392001    0.59984923    0.11310000
opls_146-463    H    0.92917997    0.77956990    0.59492000    0.11890000
opls_146-464    H    0.01822995    0.94224994    0.53788923    0.09710000
opls_144-465    H    0.78842002    0.66606992    0.09694000    0.11630000
opls_144-466    H    0.87863997    0.66726997    0.91668923    0.11590000
opls_545-467    H    0.82397993    0.64995986    0.63199077    0.26660000
