#======================================================================
# Crystal Data Generated By AuToFF
#----------------------------------------------------------------------

data_AuToFF_phase_1

_cell_length_a                         6.8523
_cell_length_b                         48.1779
_cell_length_c                         48.4377
_cell_angle_alpha                      119.46
_cell_angle_beta                       90.00
_cell_angle_gamma                      90.00
_symmetry_space_group_name_H-M_alt     'P 1'
_symmetry_space_group_IT_number        1

loop_
_space_group_symop_operation_xyz
   'x, y, z'

loop_
   _atom_site_label
   _atom_site_type_symbol
   _atom_site_fract_x
   _atom_site_fract_y
   _atom_site_fract_z
   _atom_site_charge
opls_700-0    C    0.12967033    0.20942005    0.73095012    -0.03120000
opls_700-1    C    0.28269048    0.20501985    0.70964002    0.10180000
opls_145-2    C    0.29089065    0.22387985    0.69512005    -0.17340000
opls_700-3    C    0.15120033    0.24779995    0.70188007    0.09720000
opls_145-4    C    0.99719948    0.25161992    0.72269008    -0.17820000
opls_700-5    C    0.98514951    0.23265995    0.73708011    0.10190000
opls_142-6    C    0.16667980    0.26713997    0.68634002    -0.13240000
opls_142-7    C    0.07759001    0.29552993    0.69598008    -0.17400000
opls_700-8    C    0.08603972    0.29786991    0.64503013    -0.08850000
opls_700-9    C    0.08391051    0.31598005    0.62927003    0.03410000
opls_521-10    C    0.91678998    0.00940010    0.97879020    0.18970000
opls_142-11    C    0.91274025    0.02260999    0.95726005    -0.19910000
opls_142-12    C    0.98771945    0.00840997    0.92758014    -0.16390000
opls_700-13    C    0.98170979    0.02300992    0.90722017    0.09800000
opls_145-14    C    0.83277002    0.04456988    0.91052015    -0.17710000
opls_700-15    C    0.82739956    0.05864008    0.89126018    0.09930000
opls_700-16    C    0.97477927    0.05170987    0.86840004    -0.02550000
opls_700-17    C    0.12544985    0.03026995    0.86503010    0.10610000
opls_145-18    C    0.12555930    0.01575005    0.88393013    -0.17340000
opls_145-19    C    0.72208018    0.03170987    0.81300008    -0.13010000
opls_700-20    C    0.85169067    0.05774995    0.82190010    0.03420000
opls_700-21    C    0.85543978    0.07356005    0.80335006    0.00040000
opls_700-22    C    0.72726968    0.06330004    0.77669009    0.03020000
opls_145-23    C    0.60359004    0.03727002    0.76890003    -0.13030000
opls_145-24    C    0.60199057    0.02159996    0.78683000    -0.08490000
opls_700-25    C    0.98832071    0.09923994    0.81148015    -0.00250000
opls_700-26    C    0.11451046    0.10907002    0.83792008    -0.00270000
opls_700-27    C    0.10565941    0.09370007    0.85691021    0.03420000
opls_700-28    C    0.97705004    0.06810991    0.84877016    -0.02710000
opls_145-29    C    0.22936970    0.10535009    0.88444017    -0.12940000
opls_145-30    C    0.35955956    0.12937998    0.89172019    -0.12690000
opls_700-31    C    0.37798987    0.14401995    0.87223022    0.06890000
opls_700-32    C    0.25122951    0.13426999    0.84571014    -0.00200000
opls_700-33    C    0.73049049    0.08007001    0.75838997    0.03290000
opls_700-34    C    0.86455935    0.10563003    0.76673015    -0.00230000
opls_700-35    C    0.99509946    0.11523987    0.79306006    -0.00150000
opls_700-36    C    0.12887060    0.14047991    0.80102013    -0.00200000
opls_700-37    C    0.26017979    0.14996004    0.82723005    -0.00200000
opls_700-38    C    0.39698933    0.17506998    0.83522001    0.03030000
opls_145-39    C    0.52650059    0.18299994    0.86072000    -0.12360000
opls_145-40    C    0.51702056    0.16805003    0.87888021    -0.11720000
opls_700-41    C    0.86961020    0.12200994    0.74884002    -0.00200000
opls_700-42    C    0.74110007    0.11261000    0.72256014    0.06870000
opls_145-43    C    0.60897947    0.08741991    0.71492018    -0.12480000
opls_145-44    C    0.60383959    0.07174999    0.73246009    -0.12850000
opls_700-45    C    0.00238022    0.14786998    0.75726010    -0.00200000
opls_700-46    C    0.13248982    0.15702982    0.78313000    -0.00250000
opls_700-47    C    0.26320943    0.18306994    0.79170018    -0.00100000
opls_700-48    C    0.39662011    0.19241996    0.81756011    0.03100000
opls_145-49    C    0.74869022    0.12910999    0.70465009    -0.12920000
opls_145-50    C    0.87261941    0.15416983    0.71299999    -0.13030000
opls_700-51    C    0.00296981    0.16472993    0.73963009    0.03420000
opls_700-52    C    0.12845030    0.19082007    0.74841012    -0.02830000
opls_700-53    C    0.25843002    0.20035002    0.77462004    0.03420000
opls_145-54    C    0.51825956    0.21874983    0.82585998    -0.12980000
opls_145-55    C    0.50883061    0.23616997    0.80972998    -0.08610000
opls_145-56    C    0.38211987    0.22727996    0.78455010    -0.12890000
opls_148-57    C    0.28832071    0.02381997    0.84186004    -0.42530000
opls_148-58    C    0.66959999    0.08214995    0.89591008    -0.41400000
opls_148-59    C    0.82255009    0.23787998    0.75993006    -0.41400000
opls_148-60    C    0.43828058    0.18061988    0.70322003    -0.41400000
opls_423-61    C    0.08804051    0.26362998    0.62606016    0.23910000
opls_700-62    C    0.79230040    0.54436996    0.39821013    -0.03010000
opls_700-63    C    0.94552048    0.53978992    0.37688011    0.09920000
opls_145-64    C    0.95466048    0.55851990    0.36223993    -0.17380000
opls_700-65    C    0.81544007    0.58244995    0.36882993    0.09720000
opls_145-66    C    0.66153992    0.58654989    0.38975993    -0.17720000
opls_700-67    C    0.64864060    0.56772995    0.40430005    0.10210000
opls_142-68    C    0.83089036    0.60139985    0.35286994    -0.13190000
opls_142-69    C    0.74033974    0.62956998    0.36196013    -0.17560000
opls_700-70    C    0.75276039    0.63157992    0.31076002    -0.06140000
opls_700-71    C    0.75163960    0.64963991    0.29492997    0.03530000
opls_521-72    C    0.58292982    0.34278991    0.64445014    0.19010000
opls_142-73    C    0.57790961    0.35603006    0.62295011    -0.20250000
opls_142-74    C    0.65048962    0.34168011    0.59311014    -0.16390000
opls_700-75    C    0.64370941    0.35629992    0.57276013    0.09370000
opls_145-76    C    0.49491995    0.37795998    0.57626000    -0.17720000
opls_700-77    C    0.48917006    0.39212990    0.55710009    0.10310000
opls_700-78    C    0.63600981    0.38524002    0.53417000    -0.03120000
opls_700-79    C    0.78627030    0.36365009    0.53056010    0.10610000
opls_145-80    C    0.78674022    0.34900007    0.54934015    -0.17330000
opls_145-81    C    0.38270946    0.36566995    0.47890995    -0.13010000
opls_700-82    C    0.51243962    0.39171998    0.48795010    0.03420000
opls_700-83    C    0.51603987    0.40774999    0.46961015    0.00040000
opls_700-84    C    0.38772967    0.39767989    0.44299001    0.03030000
opls_145-85    C    0.26381069    0.37164995    0.43507001    -0.13030000
opls_145-86    C    0.26230025    0.35577990    0.45281005    -0.08490000
opls_700-87    C    0.64897042    0.43345993    0.47790006    -0.00250000
opls_700-88    C    0.77530026    0.44311008    0.50430015    -0.00270000
opls_700-89    C    0.76665937    0.42750007    0.52306004    0.03420000
opls_700-90    C    0.63807043    0.40187010    0.51476017    -0.02710000
opls_145-91    C    0.89057981    0.43895998    0.55055016    -0.12930000
opls_145-92    C    0.02060038    0.46305002    0.55801016    -0.12690000
opls_700-93    C    0.03888038    0.47792002    0.53872007    0.06890000
opls_700-94    C    0.91203975    0.46833995    0.51224007    -0.00200000
opls_700-95    C    0.39116939    0.41462994    0.42486015    0.03290000
opls_700-96    C    0.52527035    0.44021006    0.43336014    -0.00230000
opls_700-97    C    0.65571998    0.44965997    0.45967013    -0.00150000
opls_700-98    C    0.78960933    0.47492001    0.46777011    -0.00200000
opls_700-99    C    0.92102068    0.48422984    0.49393996    -0.00210000
opls_700-100    C    0.05807977    0.50931004    0.50204017    0.03030000
opls_145-101    C    0.18752973    0.51709988    0.52752000    -0.12340000
opls_145-102    C    0.17791982    0.50198012    0.54552016    -0.11720000
opls_700-103    C    0.53056930    0.45674992    0.41562010    -0.00210000
opls_700-104    C    0.40255972    0.44742993    0.38928996    0.06870000
opls_145-105    C    0.27047998    0.42219998    0.38147998    -0.12560000
opls_145-106    C    0.26489062    0.40640006    0.39890015    -0.12810000
opls_700-107    C    0.66328970    0.48264991    0.42420997    -0.00200000
opls_700-108    C    0.79333946    0.49164988    0.45004998    -0.00200000
opls_700-109    C    0.92448959    0.51766003    0.45872995    -0.00110000
opls_700-110    C    0.05818046    0.52679991    0.48450998    0.02990000
opls_145-111    C    0.41061979    0.46406010    0.37151009    -0.12930000
opls_145-112    C    0.53423960    0.48920007    0.38005016    -0.13030000
opls_700-113    C    0.66415948    0.49965991    0.40672009    0.03420000
opls_700-114    C    0.78994936    0.52573009    0.41562010    -0.02750000
opls_700-115    C    0.92015965    0.53506987    0.44177999    0.03420000
opls_145-116    C    0.18081958    0.55302989    0.49283996    -0.13000000
opls_145-117    C    0.17211009    0.57054010    0.47679010    -0.08610000
opls_145-118    C    0.04490025    0.56186988    0.45171005    -0.13010000
opls_148-119    C    0.94833997    0.35719998    0.50726010    -0.42530000
opls_148-120    C    0.33138070    0.41567000    0.56184010    -0.41390000
opls_148-121    C    0.48561067    0.57304998    0.42709997    -0.41380000
opls_148-122    C    0.09996935    0.51523992    0.37049000    -0.41410000
opls_423-123    C    0.75710054    0.59734006    0.29195010    0.24300000
opls_700-124    C    0.46031989    0.87631992    0.06533997    -0.03010000
opls_700-125    C    0.61349036    0.87188008    0.04405003    0.09920000
opls_145-126    C    0.62275003    0.89087003    0.02967992    -0.17650000
opls_700-127    C    0.48392073    0.91494003    0.03657012    0.09720000
opls_145-128    C    0.32962947    0.91878993    0.05735002    -0.17720000
opls_700-129    C    0.31656962    0.89969990    0.07158995    0.10330000
opls_142-130    C    0.50044948    0.93435002    0.02111993    -0.13190000
opls_142-131    C    0.41097004    0.96268993    0.03064997    -0.17560000
opls_700-132    C    0.42136947    0.96489002    0.97964003    -0.07290000
opls_700-133    C    0.41914977    0.98293989    0.96382018    0.03550000
opls_521-134    C    0.24593932    0.67708989    0.31371002    0.18980000
opls_142-135    C    0.23989026    0.69029009    0.29219007    -0.19590000
opls_142-136    C    0.31399968    0.67602008    0.26246012    -0.08930000
opls_700-137    C    0.30660946    0.69045000    0.24196997    0.09800000
opls_145-138    C    0.15814982    0.71215998    0.24544993    -0.17720000
opls_700-139    C    0.15183953    0.72607988    0.22607993    0.09940000
opls_700-140    C    0.29760956    0.71886010    0.20292007    -0.02980000
opls_700-141    C    0.44730966    0.69718008    0.19929002    0.10550000
opls_145-142    C    0.44860996    0.68283009    0.21834014    -0.17650000
opls_145-143    C    0.04221940    0.69933010    0.14783003    -0.13010000
opls_700-144    C    0.17335055    0.72515995    0.15661006    0.03420000
opls_700-145    C    0.17785999    0.74097995    0.13806999    0.00040000
opls_700-146    C    0.04923019    0.73089999    0.11148992    0.03020000
opls_145-147    C    0.92399048    0.70508011    0.10382008    -0.13030000
opls_145-148    C    0.92149059    0.68941996    0.12176001    -0.08490000
opls_700-149    C    0.31201932    0.76648986    0.14611993    -0.00250000
opls_700-150    C    0.43843965    0.77620995    0.17252002    -0.00270000
opls_700-151    C    0.42906032    0.76078994    0.19146012    0.03420000
opls_700-152    C    0.29960013    0.73529992    0.18333999    -0.02630000
opls_145-153    C    0.55291946    0.77233991    0.21896993    -0.12930000
opls_145-154    C    0.68338952    0.79634001    0.22629002    -0.12660000
opls_700-155    C    0.70268961    0.81094993    0.20679009    0.06930000
opls_700-156    C    0.57606935    0.80127989    0.18027001    -0.00180000
opls_700-157    C    0.05385929    0.74758996    0.09310990    0.03040000
opls_700-158    C    0.18934956    0.77295002    0.10135001    -0.00230000
opls_700-159    C    0.31987070    0.78244995    0.12766000    -0.00150000
opls_700-160    C    0.45483998    0.80752001    0.13553993    -0.00200000
opls_700-161    C    0.58608934    0.81691994    0.16175009    -0.00210000
opls_700-162    C    0.72395984    0.84186010    0.16968005    0.03050000
opls_145-163    C    0.85323030    0.84973001    0.19519000    -0.12340000
opls_145-164    C    0.84260029    0.83484993    0.21340997    -0.11720000
opls_700-165    C    0.19591962    0.78921004    0.08335009    -0.00210000
opls_700-166    C    0.06778016    0.77984994    0.05702991    0.06830000
opls_145-167    C    0.93427025    0.75486994    0.04949996    -0.12480000
opls_145-168    C    0.92745064    0.73933004    0.06716009    -0.12850000
opls_700-169    C    0.32989069    0.81491000    0.09169999    -0.00200000
opls_700-170    C    0.45974053    0.82398999    0.11758008    -0.00200000
opls_700-171    C    0.59161012    0.84989005    0.12609999    -0.00100000
opls_700-172    C    0.72489967    0.85915995    0.15195993    0.02990000
opls_145-173    C    0.07714052    0.79620998    0.03900011    -0.12940000
opls_145-174    C    0.20197014    0.82115000    0.04729998    -0.13030000
opls_700-175    C    0.33181997    0.83168996    0.07399006    0.03420000
opls_700-176    C    0.45819068    0.85766988    0.08274994    -0.02630000
opls_700-177    C    0.58805073    0.86711998    0.10897006    0.03420000
opls_145-178    C    0.84772996    0.88533994    0.16019008    -0.12980000
opls_145-179    C    0.83956044    0.90271007    0.14400009    -0.08570000
opls_145-180    C    0.71291975    0.89388990    0.11881997    -0.13010000
opls_148-181    C    0.60769960    0.69028006    0.17563007    -0.42530000
opls_148-182    C    0.99434934    0.74960990    0.23069000    -0.41400000
opls_148-183    C    0.15350028    0.90479999    0.09431991    -0.41400000
opls_148-184    C    0.76800053    0.84729998    0.03751005    -0.41410000
opls_423-185    C    0.42478000    0.93064998    0.96071013    0.24100000
opls_700-186    C    0.09840929    0.51729007    0.78680012    -0.03120000
opls_700-187    C    0.24754024    0.50029002    0.79217015    0.10180000
opls_145-188    C    0.25182931    0.46699995    0.77455009    -0.17380000
opls_700-189    C    0.11400989    0.45004991    0.75054016    0.09730000
opls_145-190    C    0.96582024    0.46719989    0.74531003    -0.17450000
opls_700-191    C    0.95581046    0.50042000    0.76339010    0.10180000
opls_142-192    C    0.12574026    0.41521997    0.73159010    -0.14010000
opls_142-193    C    0.06304015    0.39841989    0.70124008    -0.18620000
opls_521-194    C    0.08446069    0.31351988    0.67875008    0.18130000
opls_521-195    C    0.92524992    0.96488988    0.98639009    0.18670000
opls_700-196    C    0.91539045    0.98486008    0.01988004    -0.06140000
opls_142-197    C    0.92282008    0.92990987    0.97152014    -0.17580000
opls_142-198    C    0.00730995    0.91285985    0.98368006    -0.13210000
opls_700-199    C    0.99564964    0.87818998    0.96978016    0.09580000
opls_145-200    C    0.84435007    0.86030989    0.94894003    -0.17820000
opls_700-201    C    0.83625936    0.82721011    0.93589020    0.10180000
opls_700-202    C    0.98184989    0.81122004    0.94337011    -0.02490000
opls_700-203    C    0.13259927    0.82900989    0.96464014    0.10550000
opls_145-204    C    0.13661982    0.86215002    0.97787018    -0.17820000
opls_145-205    C    0.72853057    0.77616996    0.96440017    -0.12890000
opls_700-206    C    0.85420954    0.75900998    0.93805012    0.03420000
opls_700-207    C    0.85196941    0.72480001    0.92215012    0.00040000
opls_700-208    C    0.72043985    0.70857003    0.93244012    0.03030000
opls_145-209    C    0.60037943    0.72680998    0.95871004    -0.13030000
opls_145-210    C    0.60578930    0.76024988    0.97461003    -0.08660000
opls_700-211    C    0.98222932    0.70719998    0.89634021    -0.00250000
opls_700-212    C    0.11233017    0.72364990    0.88656001    -0.00210000
opls_700-213    C    0.10903054    0.75788993    0.90197012    0.03420000
opls_700-214    C    0.98184989    0.77536989    0.92753010    -0.02670000
opls_145-215    C    0.23677014    0.77362998    0.89037004    -0.12930000
opls_145-216    C    0.36530070    0.75681990    0.86635014    -0.12690000
opls_700-217    C    0.37755936    0.72272995    0.85157006    0.06880000
opls_700-218    C    0.24682953    0.70614985    0.86128007    -0.00200000
opls_700-219    C    0.71686003    0.67367006    0.91548020    0.03100000
opls_700-220    C    0.84850050    0.65639992    0.88981020    -0.00230000
opls_700-221    C    0.98286999    0.67291995    0.88023013    -0.00200000
opls_700-222    C    0.11445062    0.65557998    0.85492007    -0.00200000
opls_700-223    C    0.24956000    0.67208988    0.84545002    -0.00210000
opls_700-224    C    0.38392073    0.65491002    0.82024003    0.03030000
opls_145-225    C    0.51751966    0.67221982    0.81232999    -0.12340000
opls_145-226    C    0.51424047    0.70522990    0.82744014    -0.11740000
opls_700-227    C    0.84743955    0.62229002    0.87333021    -0.00200000
opls_700-228    C    0.71498037    0.60562992    0.88271015    0.06850000
opls_145-229    C    0.58500941    0.62322001    0.90794006    -0.12480000
opls_145-230    C    0.58599011    0.65628996    0.92376015    -0.12810000
opls_700-231    C    0.97836055    0.60480992    0.84745012    -0.00150000
opls_700-232    C    0.11230974    0.62129992    0.83832010    -0.00200000
opls_700-233    C    0.24104023    0.60380995    0.81225008    -0.00110000
opls_700-234    C    0.37739007    0.62009001    0.80278999    0.02980000
opls_145-235    C    0.71652000    0.57136999    0.86611018    -0.12930000
opls_145-236    C    0.83907009    0.55463007    0.84109012    -0.13050000
opls_700-237    C    0.97389052    0.57048983    0.83065002    0.03420000
opls_700-238    C    0.09904995    0.55318005    0.80477017    -0.02710000
opls_700-239    C    0.23165069    0.56965994    0.79509003    0.03420000
opls_145-240    C    0.49597070    0.60207999    0.77630003    -0.13000000
opls_145-241    C    0.48155948    0.56876989    0.75895005    -0.08610000
opls_145-242    C    0.35320987    0.55267001    0.76812014    -0.13010000
opls_148-243    C    0.29042949    0.81224992    0.97236001    -0.42530000
opls_148-244    C    0.67678006    0.80851990    0.91300018    -0.41400000
opls_148-245    C    0.79685069    0.51825004    0.75742016    -0.41400000
opls_148-246    C    0.40377975    0.51807005    0.81621020    -0.41410000
opls_423-247    C    0.91363046    0.97192015    0.04108011    0.24100000
opls_700-248    C    0.75381989    0.85057007    0.45338008    -0.02980000
opls_700-249    C    0.90314931    0.83348008    0.45859005    0.10230000
opls_145-250    C    0.90790975    0.80021005    0.44072007    -0.16890000
opls_700-251    C    0.77010055    0.78340013    0.41665015    0.09740000
opls_145-252    C    0.62133006    0.80061994    0.41166994    -0.17710000
opls_700-253    C    0.61107949    0.83381002    0.42997006    0.09920000
opls_142-254    C    0.78270070    0.74862999    0.39732995    -0.12330000
opls_142-255    C    0.72095063    0.73205996    0.36690998    -0.18620000
opls_521-256    C    0.74749938    0.64730005    0.34447997    0.18540000
opls_521-257    C    0.59060024    0.29821988    0.65194001    0.18770000
opls_700-258    C    0.58243072    0.31815003    0.68545011    -0.07290000
opls_142-259    C    0.58675043    0.26323998    0.63702998    -0.17580000
opls_142-260    C    0.67178028    0.24610002    0.64905001    -0.13220000
opls_700-261    C    0.65854968    0.21145996    0.63528005    0.09740000
opls_145-262    C    0.50624024    0.19369991    0.61462013    -0.17820000
opls_700-263    C    0.49656028    0.16062986    0.60175003    0.10230000
opls_700-264    C    0.64152037    0.14454992    0.60925010    -0.02480000
opls_700-265    C    0.79325044    0.16225009    0.63035011    0.10550000
opls_145-266    C    0.79890986    0.19535989    0.64338998    -0.17780000
opls_145-267    C    0.38710944    0.10975010    0.63052012    -0.12890000
opls_700-268    C    0.51249945    0.09247996    0.60416011    0.03420000
opls_700-269    C    0.50979963    0.05827002    0.58834998    0.00040000
opls_700-270    C    0.37798987    0.04215995    0.59873009    0.03030000
opls_145-271    C    0.25832056    0.06048992    0.62500996    -0.13070000
opls_145-272    C    0.26429958    0.09392990    0.64084001    -0.08490000
opls_700-273    C    0.63998949    0.04057004    0.56255999    -0.00250000
opls_700-274    C    0.77058068    0.05689991    0.55272004    -0.00210000
opls_700-275    C    0.76771011    0.09114006    0.56803008    0.03420000
opls_700-276    C    0.64046962    0.10872002    0.59354003    -0.02710000
opls_145-277    C    0.89611955    0.10675995    0.55639016    -0.12930000
opls_145-278    C    0.02492010    0.08984984    0.53243998    -0.12690000
opls_700-279    C    0.03660961    0.05577000    0.51775000    0.06890000
opls_700-280    C    0.90517928    0.03928995    0.52748017    -0.00200000
opls_700-281    C    0.37380004    0.00724999    0.58183016    0.03130000
opls_700-282    C    0.50535003    0.98986994    0.55618007    -0.00230000
opls_700-283    C    0.64018067    0.00627998    0.54654001    -0.00150000
opls_700-284    C    0.77172044    0.98883991    0.52126007    -0.00200000
opls_700-285    C    0.90732017    0.00524002    0.51173003    -0.00210000
opls_700-286    C    0.04155977    0.98795986    0.48652999    0.03050000
opls_145-287    C    0.17592049    0.00515991    0.47860999    -0.12340000
opls_145-288    C    0.17336953    0.03816994    0.49367011    -0.11720000
opls_700-289    C    0.50374035    0.95575998    0.53977003    -0.00200000
opls_700-290    C    0.37066970    0.93920002    0.54919005    0.06830000
opls_145-291    C    0.24078047    0.95690003    0.57440004    -0.12480000
opls_145-292    C    0.24241058    0.98996999    0.59016014    -0.12760000
opls_700-293    C    0.63469054    0.93817993    0.51393002    -0.00200000
opls_700-294    C    0.76909943    0.95455993    0.50474000    -0.00200000
opls_700-295    C    0.89759059    0.93697988    0.47866998    -0.00090000
opls_700-296    C    0.03411993    0.95315002    0.46910011    0.02990000
opls_145-297    C    0.37150008    0.90493992    0.53264011    -0.12930000
opls_145-298    C    0.49418006    0.88810000    0.50767008    -0.13070000
opls_700-299    C    0.62971995    0.90386004    0.49721006    0.03410000
opls_700-300    C    0.75488960    0.88645010    0.47135013    -0.02710000
opls_700-301    C    0.88757935    0.90283994    0.46157016    0.03420000
opls_145-302    C    0.15180013    0.93505995    0.44252004    -0.12980000
opls_145-303    C    0.13645053    0.90175990    0.42518998    -0.08610000
opls_145-304    C    0.00830962    0.88575987    0.43450993    -0.12950000
opls_148-305    C    0.95044000    0.14540009    0.63808018    -0.42530000
opls_148-306    C    0.33612947    0.14204994    0.57902006    -0.41400000
opls_148-307    C    0.45211973    0.85173996    0.42414002    -0.41370000
opls_148-308    C    0.05934066    0.85116011    0.48268013    -0.42530000
opls_423-309    C    0.58049998    0.30512999    0.70659019    0.24100000
opls_700-310    C    0.42698948    0.18440007    0.12089002    -0.02980000
opls_700-311    C    0.57636998    0.16752002    0.12637007    0.10180000
opls_145-312    C    0.58079039    0.13422011    0.10890011    -0.17380000
opls_700-313    C    0.44293011    0.11716004    0.08493001    0.09740000
opls_145-314    C    0.29441939    0.13419988    0.07962993    -0.17720000
opls_700-315    C    0.28419947    0.16741987    0.09755991    0.10180000
opls_142-316    C    0.45526028    0.08231986    0.06604990    -0.08930000
opls_142-317    C    0.39342994    0.06544004    0.03567001    -0.19270000
opls_521-318    C    0.41822016    0.98062005    0.01336994    0.18130000
opls_521-319    C    0.25510996    0.63253009    0.32121008    0.18760000
opls_700-320    C    0.24626038    0.65244996    0.35471994    -0.06130000
opls_142-321    C    0.25329014    0.59753001    0.30608001    -0.17580000
opls_142-322    C    0.33826015    0.58021003    0.31790014    -0.13220000
opls_700-323    C    0.32786947    0.54548002    0.30348996    0.09740000
opls_145-324    C    0.17713031    0.52766013    0.28246014    -0.17720000
opls_700-325    C    0.16936941    0.49452998    0.26914995    0.10180000
opls_700-326    C    0.31492054    0.47843005    0.27651011    -0.02500000
opls_700-327    C    0.46577062    0.49612992    0.29780006    0.10550000
opls_145-328    C    0.46925996    0.52931003    0.31133006    -0.17780000
opls_145-329    C    0.06150927    0.44368005    0.29778014    -0.12890000
opls_700-330    C    0.18638997    0.42637001    0.27134994    0.03420000
opls_700-331    C    0.18351065    0.39217003    0.25555996    -0.01580000
opls_700-332    C    0.05195044    0.37609989    0.26601998    0.03020000
opls_145-333    C    0.93274959    0.39446007    0.29236008    -0.13030000
opls_145-334    C    0.93894021    0.42789998    0.30817993    -0.08330000
opls_700-335    C    0.31332983    0.37445015    0.22973014    -0.00250000
opls_700-336    C    0.44381011    0.39074006    0.21982996    -0.00210000
opls_700-337    C    0.44115990    0.42498997    0.23514000    0.03420000
opls_700-338    C    0.31416021    0.44259001    0.26068007    -0.02710000
opls_145-339    C    0.56971966    0.44058993    0.22350008    -0.12930000
opls_145-340    C    0.69834070    0.42365005    0.19952998    -0.12810000
opls_700-341    C    0.70964931    0.38956000    0.18481012    0.06890000
opls_700-342    C    0.57818980    0.37310996    0.19456993    -0.00200000
opls_700-343    C    0.04758986    0.34119994    0.24914993    0.03040000
opls_700-344    C    0.17878960    0.32379007    0.22345005    -0.00230000
opls_700-345    C    0.31338966    0.34017009    0.21374004    -0.00150000
opls_700-346    C    0.44465070    0.32268992    0.18841006    -0.00200000
opls_700-347    C    0.58015995    0.33906004    0.17883995    -0.00210000
opls_700-348    C    0.71430031    0.32172991    0.15362996    0.03070000
opls_145-349    C    0.84853991    0.33891005    0.14564996    -0.12550000
opls_145-350    C    0.84614947    0.37193010    0.16070013    -0.11720000
opls_700-351    C    0.17716971    0.28967994    0.20709004    -0.00210000
opls_700-352    C    0.04450039    0.27316013    0.21661012    0.06870000
opls_145-353    C    0.91483006    0.29089006    0.24184999    -0.12360000
opls_145-354    C    0.91641930    0.32395008    0.25755010    -0.12850000
opls_700-355    C    0.30777987    0.27205004    0.18119999    -0.00210000
opls_700-356    C    0.44193045    0.28840997    0.17194003    -0.00250000
opls_700-357    C    0.57035010    0.27077996    0.14586005    -0.00110000
opls_700-358    C    0.70699035    0.28692000    0.13627002    0.02990000
opls_145-359    C    0.04562993    0.23889009    0.20015005    -0.12930000
opls_145-360    C    0.16803993    0.22201992    0.17514991    -0.13070000
opls_700-361    C    0.30290997    0.23775991    0.16455995    0.03420000
opls_700-362    C    0.42772938    0.22028988    0.13865994    -0.02710000
opls_700-363    C    0.56040016    0.23664004    0.12882994    0.03420000
opls_145-364    C    0.82515944    0.26878010    0.10977010    -0.13000000
opls_145-365    C    0.81012069    0.23546991    0.09252991    -0.08610000
opls_145-366    C    0.68157991    0.21950999    0.10183990    -0.12890000
opls_148-367    C    0.62404010    0.47925993    0.30528993    -0.42530000
opls_148-368    C    0.00992951    0.47591001    0.24621013    -0.41400000
opls_148-369    C    0.12502955    0.18513992    0.09146998    -0.41390000
opls_148-370    C    0.73293055    0.18541999    0.15030010    -0.41410000
opls_423-371    C    0.24266013    0.63933996    0.37578012    0.24290000
opls_700-372    C    0.13765013    0.26379995    0.47511012    -0.02880000
opls_700-373    C    0.28838054    0.28562997    0.49170013    0.09950000
opls_145-374    C    0.29347956    0.30066994    0.52475994    -0.16830000
opls_700-375    C    0.15381989    0.29373000    0.54176017    0.09870000
opls_145-376    C    0.00409060    0.27187999    0.52492996    -0.17180000
opls_700-377    C    0.99414941    0.25710998    0.49191994    0.09940000
opls_142-378    C    0.16550939    0.30984984    0.57632995    -0.12410000
opls_142-379    C    0.07640938    0.29961991    0.59458999    -0.13210000
opls_700-380    C    0.07991040    0.34950007    0.64816010    -0.08590000
opls_521-381    C    0.07505947    0.36367009    0.68179018    0.19010000
opls_700-382    C    0.90599945    0.01835990    0.03314991    0.03540000
opls_700-383    C    0.90714067    0.03067002    0.01206010    -0.08590000
opls_142-384    C    0.88795003    0.03874991    0.06753996    -0.13240000
opls_142-385    C    0.97170001    0.06777000    0.08435002    -0.12990000
opls_700-386    C    0.95394977    0.08822007    0.11864996    0.09870000
opls_145-387    C    0.80218029    0.08444998    0.13610000    -0.17180000
opls_700-388    C    0.79024999    0.10402991    0.16893004    0.09940000
opls_700-389    C    0.93342965    0.12763997    0.18495002    -0.02680000
opls_700-390    C    0.08506049    0.13188996    0.16767000    0.09920000
opls_145-391    C    0.09193993    0.11253993    0.13476005    -0.16510000
opls_145-392    C    0.68059046    0.18328988    0.22064991    -0.12970000
opls_700-393    C    0.81291975    0.17395994    0.23715006    0.03360000
opls_700-394    C    0.82331042    0.19244996    0.27104998    -0.00130000
opls_700-395    C    0.69906017    0.21965997    0.28773010    0.03050000
opls_145-396    C    0.57159932    0.22781990    0.27018995    -0.13030000
opls_145-397    C    0.56333056    0.20984007    0.23698005    -0.08660000
opls_700-398    C    0.95969966    0.18380997    0.28778013    0.00110000
opls_700-399    C    0.08148943    0.15675007    0.27092004    -0.00200000
opls_700-400    C    0.06570932    0.13781003    0.23708011    0.03440000
opls_700-401    C    0.93528012    0.14673996    0.22046994    -0.02550000
opls_145-402    C    0.18473943    0.10963003    0.22080997    -0.12930000
opls_145-403    C    0.31709061    0.10166988    0.23676000    -0.12580000
opls_700-404    C    0.34379989    0.12125006    0.27033009    0.06880000
opls_700-405    C    0.22189046    0.14843003    0.28744010    0.00180000
opls_700-406    C    0.71071027    0.23813001    0.32233000    0.02960000
opls_700-407    C    0.84866979    0.22933986    0.33870992    -0.00200000
opls_700-408    C    0.97476030    0.20238006    0.32169001    -0.00210000
opls_700-409    C    0.11261036    0.19397005    0.33811001    -0.00270000
opls_700-410    C    0.23957941    0.16714003    0.32108014    -0.00270000
opls_700-411    C    0.38078018    0.15875984    0.33731993    0.03050000
opls_145-412    C    0.50511945    0.13256999    0.31942007    -0.12140000
opls_145-413    C    0.48675043    0.11413005    0.28681008    -0.11560000
opls_700-414    C    0.86210032    0.24742004    0.37250006    -0.00250000
opls_700-415    C    0.73855932    0.27436999    0.38973005    0.06850000
opls_145-416    C    0.60276987    0.28250991    0.37303002    -0.12340000
opls_145-417    C    0.58913941    0.26474988    0.34025997    -0.12850000
opls_700-418    C    0.99839032    0.23844994    0.38907015    -0.00250000
opls_700-419    C    0.12446040    0.21202014    0.37207016    0.00170000
opls_700-420    C    0.25943990    0.20303984    0.38871993    -0.00080000
opls_700-421    C    0.38962976    0.17674005    0.37190015    0.03280000
opls_145-422    C    0.75427958    0.29237996    0.42368001    -0.12950000
opls_145-423    C    0.88017016    0.28333991    0.43962008    -0.12940000
opls_700-424    C    0.00588999    0.25606998    0.42310001    0.03440000
opls_700-425    C    0.13409950    0.24665002    0.43957005    -0.02550000
opls_700-426    C    0.26192957    0.22017998    0.42268008    0.03440000
opls_145-427    C    0.51678998    0.16830985    0.38922997    -0.13000000
opls_145-428    C    0.51532040    0.18467998    0.42246999    -0.08610000
opls_145-429    C    0.39049954    0.21011995    0.43906000    -0.12890000
opls_148-430    C    0.24132043    0.15633000    0.18470010    -0.42510000
opls_148-431    C    0.63055033    0.09936004    0.18744997    -0.41400000
opls_148-432    C    0.83456941    0.23367005    0.47421002    -0.41400000
opls_148-433    C    0.44403047    0.29204993    0.47377016    -0.41400000
opls_423-434    C    0.07708069    0.36975988    0.63407999    0.24150000
opls_423-435    C    0.89527020    0.06444003    0.02349989    0.24160000
opls_700-436    C    0.82002977    0.59727007    0.14083005    -0.02850000
opls_700-437    C    0.96827051    0.61947996    0.15776009    0.09940000
opls_145-438    C    0.96936065    0.63474005    0.19085997    -0.15820000
opls_700-439    C    0.82889979    0.62751000    0.20754009    0.09880000
opls_145-440    C    0.68211987    0.60519001    0.19033997    -0.17140000
opls_700-441    C    0.67565051    0.59029993    0.15731004    0.09950000
opls_142-442    C    0.83673949    0.64373995    0.24214995    -0.12990000
opls_142-443    C    0.74830933    0.63320998    0.26022006    -0.13240000
opls_700-444    C    0.74442012    0.68315994    0.31376005    -0.08250000
opls_521-445    C    0.73551070    0.69734993    0.34736001    0.18890000
opls_700-446    C    0.57471068    0.35165010    0.69879017    0.03550000
opls_700-447    C    0.57564030    0.36403010    0.67775015    -0.08660000
opls_142-448    C    0.55834975    0.37195001    0.73322005    -0.13240000
opls_142-449    C    0.64290968    0.40089999    0.75008015    -0.12820000
opls_700-450    C    0.62689024    0.42115000    0.78443012    0.09510000
opls_145-451    C    0.47644003    0.41724989    0.80201010    -0.17180000
opls_700-452    C    0.46630037    0.43664985    0.83487998    0.09950000
opls_700-453    C    0.60978941    0.46023005    0.85080013    -0.02750000
opls_700-454    C    0.76022941    0.46458997    0.83342004    0.09720000
opls_145-455    C    0.76541015    0.44540998    0.80047998    -0.15820000
opls_145-456    C    0.35743035    0.51581997    0.88650002    -0.13010000
opls_700-457    C    0.49042949    0.50657997    0.90299021    0.03430000
opls_700-458    C    0.50180961    0.52520004    0.93687021    -0.00100000
opls_700-459    C    0.37782934    0.55245005    0.95354014    0.03140000
opls_145-460    C    0.24966945    0.56050999    0.93601018    -0.13070000
opls_145-461    C    0.24044044    0.54241998    0.90283015    -0.08290000
opls_700-462    C    0.63894021    0.51664986    0.95357001    0.00110000
opls_700-463    C    0.76027027    0.48952998    0.93673008    -0.00200000
opls_700-464    C    0.74347008    0.47046985    0.90291006    0.03440000
opls_700-465    C    0.61253010    0.47931993    0.88631009    -0.03120000
opls_145-466    C    0.86198065    0.44222987    0.88666008    -0.12930000
opls_145-467    C    0.99466019    0.43429993    0.90259019    -0.12580000
opls_700-468    C    0.02251069    0.45401991    0.93612021    0.06880000
opls_700-469    C    0.90125067    0.48127993    0.95322003    0.00180000
opls_700-470    C    0.39050976    0.57105984    0.98813007    0.03030000
opls_700-471    C    0.52942953    0.56238992    0.00447988    -0.00150000
opls_700-472    C    0.65520044    0.53538996    0.98746021    -0.00210000
opls_700-473    C    0.79375976    0.52706007    0.00386006    -0.00210000
opls_700-474    C    0.92012025    0.50013997    0.98683019    -0.00270000
opls_700-475    C    0.06179969    0.49183996    0.00306002    0.03050000
opls_145-476    C    0.18550997    0.46554991    0.98515020    -0.12340000
opls_145-477    C    0.16600995    0.44695994    0.95257008    -0.11720000
opls_700-478    C    0.54399982    0.58062001    0.03823991    -0.00250000
opls_700-479    C    0.42043985    0.60757999    0.05548010    0.06850000
opls_145-480    C    0.28355005    0.61555001    0.03879998    -0.12340000
opls_145-481    C    0.26894036    0.59766005    0.00605009    -0.12690000
opls_700-482    C    0.68125009    0.57177996    0.05479008    -0.00250000
opls_700-483    C    0.80685025    0.54527995    0.03780005    0.00180000
opls_700-484    C    0.94225005    0.53638009    0.05445006    -0.00080000
opls_700-485    C    0.07161975    0.50995004    0.03763004    0.03410000
opls_145-486    C    0.43728967    0.62572991    0.08939994    -0.13000000
opls_145-487    C    0.56424996    0.61683007    0.10532009    -0.12950000
opls_700-488    C    0.68972024    0.58953996    0.08880999    0.03430000
opls_700-489    C    0.81817930    0.58016995    0.10528998    -0.03120000
opls_700-490    C    0.94553945    0.55363987    0.08840997    0.03430000
opls_145-491    C    0.19865009    0.50150994    0.05497006    -0.13000000
opls_145-492    C    0.19785036    0.51799007    0.08821008    -0.08530000
opls_145-493    C    0.07394014    0.54356994    0.10480009    -0.12890000
opls_148-494    C    0.91682939    0.48897985    0.85036004    -0.42530000
opls_148-495    C    0.30774047    0.43195997    0.85355000    -0.41400000
opls_148-496    C    0.51852954    0.56650001    0.13921005    -0.41400000
opls_148-497    C    0.12528932    0.62613009    0.14018011    -0.41410000
opls_423-498    C    0.74252003    0.70344004    0.29971005    0.24150000
opls_423-499    C    0.56597055    0.39781993    0.68925017    0.24160000
opls_700-500    C    0.47607956    0.93054003    0.80963015    -0.02850000
opls_700-501    C    0.62710039    0.95227995    0.82626000    0.09950000
opls_145-502    C    0.63178057    0.96731983    0.85932005    -0.16890000
opls_700-503    C    0.49147002    0.96044995    0.87628020    0.09870000
opls_145-504    C    0.34178013    0.93860998    0.85940019    -0.17170000
opls_700-505    C    0.33219941    0.92384993    0.82639018    0.09940000
opls_142-506    C    0.50229996    0.97667005    0.91087014    -0.12410000
opls_142-507    C    0.41288035    0.96647997    0.92913018    -0.13210000
opls_700-508    C    0.41357063    0.01646983    0.98264006    -0.08590000
opls_521-509    C    0.40709981    0.03068005    0.01625994    0.19010000
opls_700-510    C    0.23870963    0.68597991    0.36806001    0.03350000
opls_700-511    C    0.23891978    0.69832993    0.34700007    -0.08220000
opls_142-512    C    0.22312946    0.70651982    0.40247993    -0.13220000
opls_142-513    C    0.30788057    0.73551006    0.41894000    -0.14620000
opls_700-514    C    0.29195015    0.75632990    0.45322003    0.09510000
opls_145-515    C    0.14025947    0.75302988    0.47097002    -0.17180000
opls_700-516    C    0.13036937    0.77280000    0.50379011    0.09950000
opls_700-517    C    0.27530026    0.79617003    0.51948002    -0.02750000
opls_700-518    C    0.42669031    0.80000994    0.50190003    0.10190000
opls_145-519    C    0.43160982    0.78045997    0.46900004    -0.16810000
opls_145-520    C    0.02549071    0.85215003    0.55536012    -0.12980000
opls_700-521    C    0.15725961    0.84263004    0.57177016    0.03440000
opls_700-522    C    0.16739051    0.86094995    0.60569000    -0.00100000
opls_700-523    C    0.04349051    0.88817991    0.62245998    0.03050000
opls_145-524    C    0.91649957    0.89652000    0.60499998    -0.13030000
opls_145-525    C    0.90835048    0.87869999    0.57179008    -0.08290000
opls_700-526    C    0.30273047    0.85203002    0.62233004    0.00140000
opls_700-527    C    0.42378034    0.82488007    0.60537012    -0.00200000
opls_700-528    C    0.40820017    0.80612995    0.57151004    0.03360000
opls_700-529    C    0.27877063    0.81530993    0.55498997    -0.03120000
opls_145-530    C    0.52597960    0.77782990    0.55515999    -0.12940000
opls_145-531    C    0.65706989    0.76955998    0.57103011    -0.12450000
opls_700-532    C    0.68360988    0.78895007    0.60463008    0.06880000
opls_700-533    C    0.56279060    0.81623992    0.62182000    0.00180000
opls_700-534    C    0.05455978    0.90642994    0.65708003    0.03030000
opls_700-535    C    0.19129052    0.89733998    0.67338005    -0.00080000
opls_700-536    C    0.31702056    0.87034003    0.65626008    -0.00210000
opls_700-537    C    0.45361995    0.86162996    0.67261013    -0.00200000
opls_700-538    C    0.57999066    0.83473006    0.65549015    -0.00200000
opls_700-539    C    0.71993053    0.82607000    0.67167019    0.03050000
opls_145-540    C    0.84330955    0.79974995    0.65367999    -0.12340000
opls_145-541    C    0.82520030    0.78150005    0.62105008    -0.11720000
opls_700-542    C    0.20368052    0.91513002    0.70720006    -0.00260000
opls_700-543    C    0.08030005    0.94208997    0.72454008    0.06850000
opls_145-544    C    0.94593056    0.95053998    0.70790004    -0.12360000
opls_145-545    C    0.93335960    0.93305991    0.67510011    -0.12810000
opls_700-546    C    0.33873006    0.90586001    0.72369001    -0.00260000
opls_700-547    C    0.46460021    0.87941011    0.70659019    0.00170000
opls_700-548    C    0.59854939    0.87018003    0.72316005    -0.00080000
opls_700-549    C    0.72845030    0.84384004    0.70625017    0.03300000
opls_145-550    C    0.09468062    0.95974999    0.75851019    -0.13010000
opls_145-551    C    0.21950002    0.95043996    0.77436016    -0.12940000
opls_700-552    C    0.34528990    0.92319990    0.75773007    0.03440000
opls_700-553    C    0.47274054    0.91354987    0.77410004    -0.03010000
opls_700-554    C    0.60046992    0.88709993    0.75712020    0.03360000
opls_145-555    C    0.85507056    0.83523991    0.72351004    -0.12980000
opls_145-556    C    0.85325949    0.85142993    0.75674010    -0.08570000
opls_145-557    C    0.72844009    0.87684984    0.77341002    -0.12870000
opls_148-558    C    0.58494958    0.82418001    0.51861003    -0.42530000
opls_148-559    C    0.97145046    0.76842993    0.52261994    -0.41400000
opls_148-560    C    0.17286021    0.90035982    0.80862998    -0.41400000
opls_148-561    C    0.78349021    0.95863001    0.80838006    -0.41400000
opls_423-562    C    0.41075989    0.03664991    0.96847008    0.24150000
opls_423-563    C    0.22797017    0.73209010    0.35838011    0.24150000
opls_520-564    N    0.92453045    0.97736983    0.96663004    -0.29090000
opls_262-565    N    0.07801030    0.38663992    0.62344995    -0.30560000
opls_520-566    N    0.58924011    0.31073994    0.63222999    -0.29120000
opls_262-567    N    0.74420997    0.72043000    0.28920996    -0.30560000
opls_520-568    N    0.25334997    0.64507002    0.30151002    -0.29330000
opls_262-569    N    0.41175956    0.05345001    0.95775018    -0.30560000
opls_520-570    N    0.07681071    0.34576990    0.69634002    -0.29120000
opls_262-571    N    0.09193993    0.23623988    0.60991996    -0.30550000
opls_262-572    N    0.91474979    0.96252996    0.05895010    -0.30540000
opls_520-573    N    0.73665047    0.67952000    0.36197009    -0.28790000
opls_262-574    N    0.76267968    0.56991998    0.27604015    -0.30560000
opls_262-575    N    0.58155948    0.29570996    0.72443006    -0.30560000
opls_520-576    N    0.40892985    0.01286003    0.03087998    -0.28800000
opls_262-577    N    0.42975059    0.90326991    0.94458013    -0.30560000
opls_262-578    N    0.24107964    0.62973000    0.39347013    -0.30560000
opls_262-579    N    0.88787998    0.09142008    0.03191998    -0.30560000
opls_262-580    N    0.56091969    0.42483991    0.69775017    -0.30550000
opls_262-581    N    0.22107030    0.75904995    0.36661999    -0.30560000
opls_146-582    H    0.40965953    0.22048996    0.67885014    0.11130000
opls_146-583    H    0.88431038    0.26932999    0.72754011    0.11050000
opls_144-584    H    0.26369978    0.25773988    0.66587003    0.10700000
opls_144-585    H    0.99644937    0.30669989    0.71818009    0.10850000
opls_144-586    H    0.84899961    0.91744995    0.94868015    0.10730000
opls_144-587    H    0.06283000    0.98559993    0.91854022    0.10880000
opls_146-588    H    0.71768019    0.05014987    0.92796000    0.11050000
opls_146-589    H    0.24256965    0.99937982    0.88124002    0.11200000
opls_146-590    H    0.71829021    0.01990001    0.82717006    0.11470000
opls_146-591    H    0.50592940    0.02875992    0.74869016    0.11460000
opls_146-592    H    0.50438977    0.00147008    0.78013021    0.11120000
opls_146-593    H    0.21696948    0.09456986    0.89949010    0.11200000
opls_146-594    H    0.45155057    0.13796989    0.91263999    0.11130000
opls_146-595    H    0.63544941    0.20147992    0.86671009    0.11280000
opls_146-596    H    0.61686003    0.17500004    0.89866018    0.11160000
opls_146-597    H    0.50964056    0.08036993    0.69505010    0.11120000
opls_146-598    H    0.49886024    0.05258987    0.72583001    0.11190000
opls_146-599    H    0.65197963    0.12143000    0.68435011    0.10940000
opls_146-600    H    0.87489018    0.16683000    0.69961013    0.11230000
opls_146-601    H    0.62034062    0.22645994    0.84543010    0.11470000
opls_146-602    H    0.60211024    0.25691003    0.81725020    0.11250000
opls_146-603    H    0.37561986    0.24097008    0.77223012    0.11300000
opls_702-604    H    0.23231032    0.01801995    0.81858020    0.11490000
opls_702-605    H    0.38007968    0.04491005    0.84975017    0.12520000
opls_702-606    H    0.38098011    0.00443003    0.83949004    0.11880000
opls_702-607    H    0.55101061    0.08090011    0.91016021    0.11880000
opls_702-608    H    0.72731929    0.10639990    0.90799010    0.13410000
opls_702-609    H    0.61073946    0.07805003    0.87333021    0.11610000
opls_702-610    H    0.87771989    0.24896987    0.78417000    0.12080000
opls_702-611    H    0.71044029    0.25327992    0.75884998    0.11840000
opls_702-612    H    0.75519023    0.21542994    0.75503000    0.11170000
opls_702-613    H    0.37471068    0.15763009    0.69734019    0.11490000
opls_702-614    H    0.53327058    0.17759999    0.68394014    0.12140000
opls_702-615    H    0.52880930    0.18779000    0.72419010    0.12260000
opls_146-616    H    0.07347022    0.55494995    0.34592995    0.11130000
opls_146-617    H    0.54926959    0.60432994    0.39451013    0.11000000
opls_144-618    H    0.92862980    0.59181994    0.33249006    0.10630000
opls_144-619    H    0.65820965    0.64090003    0.38407003    0.10730000
opls_144-620    H    0.51134072    0.25086991    0.61433013    0.10730000
opls_144-621    H    0.72442975    0.31876993    0.58395000    0.10710000
opls_146-622    H    0.38033069    0.38350992    0.59377004    0.11050000
opls_146-623    H    0.90351999    0.33253990    0.54648998    0.11280000
opls_146-624    H    0.37912964    0.35368003    0.49291015    0.11460000
opls_146-625    H    0.16593990    0.36328990    0.41489997    0.11460000
opls_146-626    H    0.16457978    0.33563991    0.44600000    0.11040000
opls_146-627    H    0.87845979    0.42798000    0.56544004    0.11180000
opls_146-628    H    0.11269939    0.47149999    0.57890008    0.11130000
opls_146-629    H    0.29655006    0.53558009    0.53362012    0.11460000
opls_146-630    H    0.27774032    0.50879997    0.56527998    0.11130000
opls_146-631    H    0.17157013    0.41521997    0.36157007    0.11120000
opls_146-632    H    0.15995943    0.38723000    0.39215009    0.11380000
opls_146-633    H    0.31445062    0.45639999    0.35113992    0.10850000
opls_146-634    H    0.53672927    0.50195009    0.36676012    0.11230000
opls_146-635    H    0.28330050    0.56057013    0.51233018    0.11590000
opls_146-636    H    0.26633977    0.59117009    0.48430013    0.11250000
opls_146-637    H    0.03892999    0.57562987    0.43946002    0.11280000
opls_702-638    H    0.89144959    0.35129990    0.48399994    0.11530000
opls_702-639    H    0.03971951    0.37829009    0.51501009    0.12710000
opls_702-640    H    0.04151015    0.33783999    0.50485999    0.11950000
opls_702-641    H    0.21600047    0.41513983    0.57695998    0.11950000
opls_702-642    H    0.39051997    0.43979989    0.57290003    0.12910000
opls_702-643    H    0.26771011    0.41089993    0.53931998    0.11510000
opls_702-644    H    0.54153058    0.58287988    0.45120001    0.12900000
opls_702-645    H    0.37775929    0.58947002    0.42688016    0.11950000
opls_702-646    H    0.41262934    0.55075990    0.42137000    0.11530000
opls_702-647    H    0.03525969    0.49226004    0.36436997    0.11480000
opls_702-648    H    0.19623046    0.51228993    0.35136993    0.11880000
opls_702-649    H    0.18928973    0.52220001    0.39154994    0.11940000
opls_146-650    H    0.74167944    0.88747007    0.01342993    0.11040000
opls_146-651    H    0.21742043    0.93662996    0.06231007    0.11000000
opls_144-652    H    0.59838011    0.92499992    0.00076992    0.10650000
opls_144-653    H    0.32886038    0.97382997    0.05276011    0.10730000
opls_144-654    H    0.18048976    0.58524996    0.28313996    0.10730000
opls_144-655    H    0.38962976    0.65326989    0.25347995    0.10710000
opls_146-656    H    0.04411949    0.71796992    0.26311006    0.10940000
opls_146-657    H    0.56497964    0.66627995    0.21547005    0.11230000
opls_146-658    H    0.03794055    0.68750002    0.16198009    0.11470000
opls_146-659    H    0.82584971    0.69669996    0.08367992    0.11470000
opls_146-660    H    0.82282008    0.66943005    0.11511997    0.11090000
opls_146-661    H    0.54019964    0.76152990    0.23399994    0.11190000
opls_146-662    H    0.77518935    0.80490003    0.24722998    0.11090000
opls_146-663    H    0.96292048    0.86808987    0.20114998    0.11470000
opls_146-664    H    0.94229967    0.84174001    0.23320014    0.11130000
opls_146-665    H    0.83519986    0.74785002    0.02960001    0.11040000
opls_146-666    H    0.82142054    0.72033003    0.06060993    0.11200000
opls_146-667    H    0.98095968    0.78849990    0.01861999    0.10730000
opls_146-668    H    0.20545072    0.83370999    0.03382001    0.11190000
opls_146-669    H    0.94979058    0.89297008    0.17975001    0.11500000
opls_146-670    H    0.93375071    0.92333006    0.15146008    0.11230000
opls_146-671    H    0.70740043    0.90755003    0.10645992    0.11280000
opls_702-672    H    0.54902004    0.68422005    0.15243014    0.11480000
opls_702-673    H    0.69984969    0.71122999    0.18299000    0.12260000
opls_702-674    H    0.70043051    0.67089998    0.17327999    0.11890000
opls_702-675    H    0.88399953    0.75039995    0.24716999    0.11950000
opls_702-676    H    0.05544999    0.77346990    0.23999999    0.12900000
opls_702-677    H    0.92365045    0.74368990    0.20831002    0.11480000
opls_702-678    H    0.20946981    0.91435006    0.11839008    0.12290000
opls_702-679    H    0.04592035    0.92138006    0.09433011    0.11890000
opls_702-680    H    0.08013952    0.88247002    0.08833006    0.11530000
opls_702-681    H    0.70335070    0.82428002    0.03122000    0.11170000
opls_702-682    H    0.86437984    0.84449999    0.01845993    0.12140000
opls_702-683    H    0.85719977    0.85413003    0.05855008    0.12260000
opls_146-684    H    0.36762985    0.45412995    0.77878005    0.11190000
opls_146-685    H    0.85508953    0.45450986    0.72732006    0.11000000
opls_144-686    H    0.19601010    0.40254996    0.74236999    0.10810000
opls_144-687    H    0.00701954    0.41114001    0.68956009    0.11030000
opls_144-688    H    0.80715964    0.02859991    0.07984002    0.10710000
opls_144-689    H    0.09801964    0.92509993    0.00480000    0.10710000
opls_146-690    H    0.73071961    0.87228007    0.94301017    0.11050000
opls_146-691    H    0.25373962    0.87570988    0.99409005    0.11090000
opls_146-692    H    0.73044963    0.80206003    0.97643016    0.11200000
opls_146-693    H    0.50052975    0.71523991    0.96728022    0.11360000
opls_146-694    H    0.51148957    0.77367996    0.99500011    0.11100000
opls_146-695    H    0.22906032    0.79942989    0.90123008    0.11250000
opls_146-696    H    0.46062052    0.76904992    0.85784019    0.11130000
opls_146-697    H    0.62481940    0.65964005    0.79378019    0.11480000
opls_146-698    H    0.61716942    0.71789989    0.82053003    0.11090000
opls_146-699    H    0.48261022    0.61056002    0.91496020    0.11040000
opls_146-700    H    0.48260000    0.66886996    0.94296013    0.11380000
opls_146-701    H    0.61640033    0.55888995    0.87372003    0.10730000
opls_146-702    H    0.83665047    0.52872007    0.82837012    0.11250000
opls_146-703    H    0.59958992    0.61379002    0.76843006    0.11500000
opls_146-704    H    0.57246034    0.55558999    0.73809000    0.11230000
opls_146-705    H    0.34316069    0.52684996    0.75456003    0.11380000
opls_702-706    H    0.22914934    0.79561993    0.97917007    0.11480000
opls_702-707    H    0.38276053    0.79827988    0.95172001    0.12530000
opls_702-708    H    0.38342017    0.82916990    0.99144001    0.11880000
opls_702-709    H    0.56687973    0.82419996    0.91190018    0.11920000
opls_702-710    H    0.73598062    0.79375006    0.88923021    0.12260000
opls_702-711    H    0.60565941    0.79242003    0.91964021    0.11840000
opls_702-712    H    0.85805934    0.53462993    0.75026012    0.12420000
opls_702-713    H    0.69813931    0.50201005    0.73897018    0.11950000
opls_702-714    H    0.71188068    0.53262008    0.77886020    0.11890000
opls_702-715    H    0.34104023    0.53527993    0.83896008    0.11850000
opls_702-716    H    0.49820936    0.50187993    0.81966004    0.12140000
opls_702-717    H    0.49473024    0.53158999    0.80850004    0.13410000
opls_146-718    H    0.02402989    0.78725007    0.44476010    0.11250000
opls_146-719    H    0.51050012    0.78802996    0.39367998    0.11050000
opls_144-720    H    0.85343024    0.73576012    0.40786015    0.10820000
opls_144-721    H    0.66469944    0.74488986    0.35534997    0.11000000
opls_144-722    H    0.47822045    0.36174993    0.74553007    0.10750000
opls_144-723    H    0.76399019    0.25824992    0.67000016    0.10760000
opls_146-724    H    0.39306072    0.20571991    0.60867011    0.11030000
opls_146-725    H    0.91675934    0.20884004    0.65948015    0.11120000
opls_146-726    H    0.38936999    0.13563999    0.64249012    0.11230000
opls_146-727    H    0.15837018    0.04900005    0.63366005    0.11500000
opls_146-728    H    0.17033989    0.10743992    0.66125996    0.11090000
opls_146-729    H    0.88877019    0.13255987    0.56717005    0.11190000
opls_146-730    H    0.12080032    0.10200997    0.52392007    0.11090000
opls_146-731    H    0.28324942    0.99250005    0.46009007    0.11460000
opls_146-732    H    0.27687930    0.05074991    0.48675004    0.11130000
opls_146-733    H    0.13797995    0.94431998    0.58145006    0.11040000
opls_146-734    H    0.13908031    0.00264007    0.60936012    0.11280000
opls_146-735    H    0.27082002    0.89254997    0.54027012    0.10850000
opls_146-736    H    0.49129052    0.86219010    0.49499015    0.11190000
opls_146-737    H    0.25533033    0.94668998    0.43455001    0.11590000
opls_146-738    H    0.22649038    0.88851999    0.40424006    0.11200000
opls_146-739    H    0.99770004    0.85992992    0.42096002    0.11250000
opls_702-740    H    0.88851043    0.12894997    0.64508017    0.11480000
opls_702-741    H    0.04187937    0.13119997    0.61737995    0.11940000
opls_702-742    H    0.04440991    0.16228004    0.65702004    0.11850000
opls_702-743    H    0.22632985    0.15780988    0.57804005    0.11950000
opls_702-744    H    0.39440042    0.12725998    0.55519010    0.12300000
opls_702-745    H    0.26509931    0.12598990    0.58572009    0.11840000
opls_702-746    H    0.51322038    0.86777986    0.41651997    0.13510000
opls_702-747    H    0.35149950    0.83553009    0.40603007    0.12090000
opls_702-748    H    0.36936941    0.86648001    0.44573016    0.12320000
opls_702-749    H    0.99658071    0.86858002    0.50534015    0.11840000
opls_702-750    H    0.15217956    0.83491998    0.48632014    0.11850000
opls_702-751    H    0.15200006    0.86443006    0.47489007    0.12440000
opls_146-752    H    0.69685945    0.12143998    0.11319006    0.11200000
opls_146-753    H    0.18383025    0.12140005    0.06166013    0.11050000
opls_144-754    H    0.52575048    0.06974989    0.07690994    0.10710000
opls_144-755    H    0.33731010    0.07806994    0.02389991    0.11050000
opls_144-756    H    0.14303956    0.69658994    0.41505007    0.10710000
opls_144-757    H    0.42786947    0.59228989    0.33916993    0.10760000
opls_146-758    H    0.06339039    0.53970002    0.27663010    0.11000000
opls_146-759    H    0.58617982    0.54279993    0.32763007    0.11130000
opls_146-760    H    0.06395955    0.46955991    0.30973994    0.11280000
opls_146-761    H    0.83304000    0.38298999    0.30106993    0.11460000
opls_146-762    H    0.84537017    0.44143003    0.32863996    0.11130000
opls_146-763    H    0.56263007    0.46639006    0.23430013    0.11250000
opls_146-764    H    0.79441064    0.43579004    0.19101007    0.11090000
opls_146-765    H    0.95571998    0.32622000    0.12711012    0.11470000
opls_146-766    H    0.94964027    0.38448998    0.15374994    0.11130000
opls_146-767    H    0.81222071    0.27833989    0.24896000    0.11090000
opls_146-768    H    0.81329043    0.33664988    0.27677996    0.11200000
opls_146-769    H    0.94539060    0.22652985    0.20786992    0.10860000
opls_146-770    H    0.16543059    0.19611997    0.16255013    0.11200000
opls_146-771    H    0.92895962    0.28038004    0.10180006    0.11460000
opls_146-772    H    0.90072968    0.22219002    0.07165990    0.11280000
opls_146-773    H    0.67113962    0.19367992    0.08836989    0.11200000
opls_702-774    H    0.56315981    0.46268000    0.31221000    0.11840000
opls_702-775    H    0.71507961    0.46519004    0.28450007    0.13410000
opls_702-776    H    0.71817054    0.49611001    0.32421011    0.12080000
opls_702-777    H    0.90106971    0.49164998    0.24495008    0.11830000
opls_702-778    H    0.06943070    0.46097004    0.22249991    0.12710000
opls_702-779    H    0.93742977    0.45999006    0.25294999    0.11840000
opls_702-780    H    0.18592006    0.20097000    0.08358009    0.13030000
opls_702-781    H    0.02431009    0.16880003    0.07348998    0.11920000
opls_702-782    H    0.04241933    0.20006994    0.11303001    0.11890000
opls_702-783    H    0.67056025    0.20282002    0.17298999    0.11480000
opls_702-784    H    0.82712958    0.16931991    0.15392991    0.12140000
opls_702-785    H    0.82412037    0.19871991    0.14235994    0.13410000
opls_146-786    H    0.40924945    0.31760005    0.53751005    0.11280000
opls_146-787    H    0.89298046    0.26658984    0.53769999    0.11170000
opls_144-788    H    0.25896998    0.33081999    0.58741004    0.10850000
opls_144-789    H    0.99797002    0.27703008    0.58339016    0.10730000
opls_144-790    H    0.85161041    0.04645999    0.96700018    0.10940000
opls_144-791    H    0.06744013    0.07647000    0.07233000    0.10940000
opls_146-792    H    0.69197058    0.06615992    0.12400007    0.11170000
opls_146-793    H    0.20899990    0.11581003    0.12150013    0.11300000
opls_146-794    H    0.67280037    0.16916993    0.19497991    0.11470000
opls_146-795    H    0.47651008    0.24840996    0.28214003    0.11370000
opls_146-796    H    0.46327073    0.21687005    0.22409003    0.11130000
opls_146-797    H    0.16685055    0.09461000    0.19535005    0.11190000
opls_146-798    H    0.40505962    0.08021993    0.22419010    0.11090000
opls_146-799    H    0.61689944    0.12624000    0.33123997    0.11500000
opls_146-800    H    0.58269048    0.09380994    0.27369006    0.11160000
opls_146-801    H    0.50732017    0.30290999    0.38614008    0.11090000
opls_146-802    H    0.48161931    0.27171992    0.32834001    0.11470000
opls_146-803    H    0.66177050    0.31326002    0.43657998    0.10850000
opls_146-804    H    0.88797046    0.29667011    0.46534011    0.11280000
opls_146-805    H    0.61709061    0.14847003    0.37708996    0.11590000
opls_146-806    H    0.61288035    0.17709003    0.43518003    0.11190000
opls_146-807    H    0.38924011    0.22256997    0.46482011    0.11280000
opls_702-808    H    0.17868015    0.17952998    0.20088014    0.11610000
opls_702-809    H    0.33117931    0.14955006    0.19904010    0.13410000
opls_702-810    H    0.33684019    0.15872999    0.16805010    0.11890000
opls_702-811    H    0.52535061    0.08173006    0.17183997    0.11890000
opls_702-812    H    0.69048057    0.09145990    0.20328002    0.13030000
opls_702-813    H    0.55331057    0.12160008    0.20230000    0.11480000
opls_702-814    H    0.89509946    0.21026999    0.45799014    0.12320000
opls_702-815    H    0.73516046    0.23120013    0.49036017    0.11890000
opls_702-816    H    0.75020066    0.24107010    0.45985010    0.12320000
opls_702-817    H    0.38058024    0.29830997    0.45692999    0.11480000
opls_702-818    H    0.54040979    0.31119000    0.48975007    0.11880000
opls_702-819    H    0.53288969    0.27081996    0.45998004    0.11940000
opls_146-820    H    0.08223954    0.65215003    0.20390008    0.11470000
opls_146-821    H    0.57052960    0.59962998    0.20282996    0.11190000
opls_144-822    H    0.92669031    0.66510999    0.25344012    0.10940000
opls_144-823    H    0.67367015    0.61027002    0.24879994    0.10670000
opls_144-824    H    0.51806985    0.37997995    0.63280998    0.10860000
opls_144-825    H    0.73808064    0.40969001    0.73807008    0.10860000
opls_146-826    H    0.36595012    0.39899998    0.78999008    0.11190000
opls_146-827    H    0.88150986    0.44874995    0.78711999    0.11280000
opls_146-828    H    0.34892956    0.50159993    0.86083998    0.11280000
opls_146-829    H    0.15480058    0.58114000    0.94796002    0.11470000
opls_146-830    H    0.13985961    0.54937005    0.88994014    0.11130000
opls_146-831    H    0.84327014    0.42712000    0.86123004    0.11250000
opls_146-832    H    0.08210966    0.41279009    0.89004021    0.11130000
opls_146-833    H    0.29768983    0.45926009    0.99695018    0.11380000
opls_146-834    H    0.26149030    0.42656988    0.93945006    0.11130000
opls_146-835    H    0.18798943    0.63593991    0.05191004    0.11120000
opls_146-836    H    0.16060009    0.60453007    0.99416000    0.11380000
opls_146-837    H    0.34484042    0.64660000    0.10229991    0.11000000
opls_146-838    H    0.57306014    0.63028003    0.13101997    0.11380000
opls_146-839    H    0.29820936    0.48156005    0.04284001    0.11590000
opls_146-840    H    0.29518994    0.51037003    0.10092012    0.11250000
opls_146-841    H    0.07309954    0.55610993    0.13055996    0.11280000
opls_702-842    H    0.85447952    0.51220991    0.86660007    0.11840000
opls_702-843    H    0.00696992    0.48218996    0.86466020    0.11940000
opls_702-844    H    0.01196970    0.49138997    0.83368016    0.11880000
opls_702-845    H    0.20734060    0.41325006    0.83813017    0.11830000
opls_702-846    H    0.36930957    0.42562986    0.87047008    0.13030000
opls_702-847    H    0.22451002    0.45382988    0.86728012    0.13030000
opls_702-848    H    0.58143981    0.54348992    0.12245998    0.11180000
opls_702-849    H    0.42135050    0.56314998    0.15506002    0.11830000
opls_702-850    H    0.43119974    0.57421002    0.12536991    0.12290000
opls_702-851    H    0.06320943    0.63232996    0.12321995    0.11470000
opls_702-852    H    0.22032018    0.64536984    0.15635990    0.11920000
opls_702-853    H    0.21531019    0.60498989    0.12657992    0.12520000
opls_146-854    H    0.74764969    0.98420992    0.87210004    0.11300000
opls_146-855    H    0.23027013    0.93335003    0.87213015    0.11230000
opls_144-856    H    0.59514032    0.99771009    0.92196018    0.10870000
opls_144-857    H    0.33505976    0.94382988    0.91792016    0.10710000
opls_144-858    H    0.17822045    0.71411002    0.30193992    0.10850000
opls_144-859    H    0.40321060    0.74392001    0.40661006    0.10850000
opls_146-860    H    0.02880930    0.73489995    0.45912001    0.11160000
opls_146-861    H    0.54862017    0.78335998    0.45548996    0.11280000
opls_146-862    H    0.01778965    0.83812999    0.52968016    0.11380000
opls_146-863    H    0.82154021    0.91712991    0.61704016    0.11380000
opls_146-864    H    0.80845993    0.88581989    0.55895010    0.11130000
opls_146-865    H    0.50814033    0.76292995    0.52968016    0.11230000
opls_146-866    H    0.74411949    0.74801990    0.55839002    0.11130000
opls_146-867    H    0.95401982    0.79316987    0.66546005    0.11470000
opls_146-868    H    0.92027057    0.76106004    0.60786011    0.11120000
opls_146-869    H    0.85073041    0.97095985    0.72109001    0.11100000
opls_146-870    H    0.82691943    0.94029001    0.66324014    0.11280000
opls_146-871    H    0.00204019    0.98059002    0.77150003    0.10850000
opls_146-872    H    0.22634006    0.96351999    0.80009015    0.11280000
opls_146-873    H    0.95528071    0.81539995    0.71130008    0.11590000
opls_146-874    H    0.95052026    0.84371012    0.76938019    0.11250000
opls_146-875    H    0.72682019    0.88915997    0.79917013    0.11230000
opls_702-876    H    0.52426047    0.84750003    0.53492996    0.11510000
opls_702-877    H    0.67541993    0.81723002    0.53275013    0.11940000
opls_702-878    H    0.67956015    0.82642006    0.50177009    0.11890000
opls_702-879    H    0.86205945    0.75159992    0.50720011    0.11840000
opls_702-880    H    0.03129022    0.75955997    0.53768007    0.13290000
opls_702-881    H    0.89940020    0.79095991    0.53827998    0.11480000
opls_702-882    H    0.23334939    0.87674999    0.79318004    0.11180000
opls_702-883    H    0.07008012    0.89858996    0.82479010    0.11840000
opls_702-884    H    0.09238066    0.90719002    0.79347999    0.13030000
opls_702-885    H    0.72080032    0.96470998    0.79137011    0.11510000
opls_702-886    H    0.87930038    0.97784003    0.82438012    0.11690000
opls_702-887    H    0.87287042    0.93740996    0.79479007    0.12440000
