#======================================================================
# Crystal Data Generated By AuToFF
#----------------------------------------------------------------------

data_AuToFF_phase_1

_cell_length_a                         6.8537
_cell_length_b                         48.1910
_cell_length_c                         48.4571
_cell_angle_alpha                      119.45
_cell_angle_beta                       90.00
_cell_angle_gamma                      90.00
_symmetry_space_group_name_H-M_alt     'P 1'
_symmetry_space_group_IT_number        1

loop_
_space_group_symop_operation_xyz
   'x, y, z'

loop_
   _atom_site_label
   _atom_site_type_symbol
   _atom_site_fract_x
   _atom_site_fract_y
   _atom_site_fract_z
   _atom_site_charge
opls_700-0    C    0.12967011    0.20942009    0.73095004    -0.02480000
opls_700-1    C    0.28268964    0.20501995    0.70963998    0.10240000
opls_145-2    C    0.29088959    0.22387995    0.69512005    -0.17740000
opls_700-3    C    0.15120008    0.24779991    0.70187984    0.09790000
opls_145-4    C    0.99720005    0.25161998    0.72268984    -0.17630000
opls_700-5    C    0.98514963    0.23265987    0.73707990    0.10610000
opls_142-6    C    0.16667931    0.26714003    0.68633988    -0.13170000
opls_142-7    C    0.07759021    0.29552996    0.69597986    -0.17510000
opls_700-8    C    0.08603966    0.29787003    0.64502987    -0.06110000
opls_700-9    C    0.08390942    0.31598004    0.62926999    0.03550000
opls_521-10    C    0.91678947    0.00940000    0.97878995    0.18550000
opls_142-11    C    0.91274056    0.02261000    0.95725997    -0.20110000
opls_142-12    C    0.98772050    0.00841011    0.92757998    -0.15690000
opls_700-13    C    0.98171061    0.02301013    0.90722003    0.10740000
opls_145-14    C    0.83277062    0.04457003    0.91051994    -0.17900000
opls_700-15    C    0.82739980    0.05863999    0.89125989    0.10280000
opls_700-16    C    0.97478005    0.05170994    0.86839989    -0.02410000
opls_700-17    C    0.12545049    0.03026996    0.86502983    0.10570000
opls_145-18    C    0.12555992    0.01574998    0.88392989    -0.17740000
opls_145-19    C    0.72208004    0.03171004    0.81299985    -0.12880000
opls_700-20    C    0.85169033    0.05774999    0.82189994    0.03450000
opls_700-21    C    0.85544013    0.07356004    0.80334992    -0.00080000
opls_700-22    C    0.72726994    0.06329998    0.77668995    0.02970000
opls_145-23    C    0.60358930    0.03726997    0.76889994    -0.12990000
opls_145-24    C    0.60199017    0.02159995    0.78682999    -0.08770000
opls_700-25    C    0.98832018    0.09924005    0.81148001    -0.00260000
opls_700-26    C    0.11451041    0.10906995    0.83792004    -0.00210000
opls_700-27    C    0.10565972    0.09370001    0.85690993    0.03420000
opls_700-28    C    0.97705035    0.06810992    0.84876988    -0.02790000
opls_145-29    C    0.22936954    0.10534993    0.88443990    -0.13010000
opls_145-30    C    0.35956053    0.12937996    0.89171989    -0.12890000
opls_700-31    C    0.37798999    0.14402000    0.87222995    0.06910000
opls_700-32    C    0.25123072    0.13427002    0.84570981    -0.00250000
opls_700-33    C    0.73049010    0.08006991    0.75838996    0.03150000
opls_700-34    C    0.86455929    0.10563004    0.76673002    -0.00130000
opls_700-35    C    0.99510046    0.11523986    0.79305986    -0.00090000
opls_700-36    C    0.12887054    0.14047998    0.80102002    -0.00200000
opls_700-37    C    0.26018063    0.14995996    0.82722994    -0.00210000
opls_700-38    C    0.39698995    0.17507001    0.83521997    0.03030000
opls_145-39    C    0.52649955    0.18299997    0.86071985    -0.12530000
opls_145-40    C    0.51702000    0.16805006    0.87888001    -0.11790000
opls_700-41    C    0.86961058    0.12201003    0.74884003    -0.00210000
opls_700-42    C    0.74110043    0.11260991    0.72255997    0.06970000
opls_145-43    C    0.60898055    0.08741998    0.71491998    -0.12610000
opls_145-44    C    0.60384026    0.07175008    0.73245993    -0.12890000
opls_700-45    C    0.00237974    0.14787007    0.75725997    -0.00210000
opls_700-46    C    0.13249048    0.15703013    0.78313003    -0.00250000
opls_700-47    C    0.26320965    0.18306996    0.79169998    -0.00040000
opls_700-48    C    0.39661934    0.19242004    0.81755986    0.02980000
opls_145-49    C    0.74869049    0.12910984    0.70464983    -0.12990000
opls_145-50    C    0.87262063    0.15417002    0.71299985    -0.12990000
opls_700-51    C    0.00297066    0.16472991    0.73962996    0.03450000
opls_700-52    C    0.12845033    0.19082001    0.74840989    -0.02700000
opls_700-53    C    0.25842975    0.20035012    0.77462004    0.03420000
opls_145-54    C    0.51826021    0.21874993    0.82585987    -0.12900000
opls_145-55    C    0.50883027    0.23617010    0.80973004    -0.08330000
opls_145-56    C    0.38212061    0.22727994    0.78454986    -0.12880000
opls_148-57    C    0.28832018    0.02381997    0.84185984    -0.43820000
opls_148-58    C    0.66960036    0.08215000    0.89590995    -0.41230000
opls_148-59    C    0.82254986    0.23787990    0.75992994    -0.41230000
opls_148-60    C    0.43828005    0.18061997    0.70322004    -0.42350000
opls_423-61    C    0.08804004    0.26362996    0.62605990    0.23820000
opls_700-62    C    0.79230051    0.54437002    0.39820998    -0.02490000
opls_700-63    C    0.94551994    0.53979009    0.37688002    0.10270000
opls_145-64    C    0.95465953    0.55851992    0.36223993    -0.17270000
opls_700-65    C    0.81543984    0.58244999    0.36883003    0.09790000
opls_145-66    C    0.66154048    0.58654993    0.38975995    -0.17910000
opls_700-67    C    0.64863942    0.56772997    0.40430003    0.10660000
opls_142-68    C    0.83088988    0.60139996    0.35286988    -0.13160000
opls_142-69    C    0.74034025    0.62956994    0.36196004    -0.17510000
opls_700-70    C    0.75275982    0.63157992    0.31076002    -0.06020000
opls_700-71    C    0.75164072    0.64963989    0.29492998    0.03370000
opls_521-72    C    0.58293039    0.34278989    0.64444995    0.18580000
opls_142-73    C    0.57790974    0.35603012    0.62295006    -0.20110000
opls_142-74    C    0.65048952    0.34167985    0.59310986    -0.15690000
opls_700-75    C    0.64371070    0.35629994    0.57275987    0.09750000
opls_145-76    C    0.49491953    0.37796009    0.57626004    -0.17380000
opls_700-77    C    0.48916935    0.39212992    0.55710000    0.10230000
opls_700-78    C    0.63600975    0.38523990    0.53416984    -0.02470000
opls_700-79    C    0.78627019    0.36365001    0.53055995    0.10570000
opls_145-80    C    0.78674001    0.34899985    0.54933985    -0.17730000
opls_145-81    C    0.38271007    0.36566989    0.47890987    -0.12890000
opls_700-82    C    0.51244000    0.39171994    0.48795002    0.03450000
opls_700-83    C    0.51603951    0.40775002    0.46960998    -0.00080000
opls_700-84    C    0.38773071    0.39768012    0.44299006    0.02970000
opls_145-85    C    0.26380933    0.37164990    0.43506995    -0.12990000
opls_145-86    C    0.26230066    0.35577987    0.45280992    -0.08770000
opls_700-87    C    0.64897063    0.43345994    0.47790004    -0.00260000
opls_700-88    C    0.77529947    0.44311004    0.50430003    -0.00210000
opls_700-89    C    0.76666034    0.42750008    0.52306002    0.03430000
opls_700-90    C    0.63806995    0.40187011    0.51476001    -0.02790000
opls_145-91    C    0.89058027    0.43896004    0.55054995    -0.12990000
opls_145-92    C    0.02060055    0.46305007    0.55801005    -0.12890000
opls_700-93    C    0.03887973    0.47792003    0.53871990    0.06910000
opls_700-94    C    0.91204021    0.46834000    0.51224005    -0.00250000
opls_700-95    C    0.39116973    0.41462993    0.42486000    0.03160000
opls_700-96    C    0.52526956    0.44021001    0.43336003    -0.00100000
opls_700-97    C    0.65572027    0.44965996    0.45966996    -0.00090000
opls_700-98    C    0.78960999    0.47492003    0.46776995    -0.00210000
opls_700-99    C    0.92101930    0.48423009    0.49394005    -0.00200000
opls_700-100    C    0.05807958    0.50931005    0.50204005    0.03020000
opls_145-101    C    0.18752936    0.51710006    0.52752002    -0.12400000
opls_145-102    C    0.17791996    0.50198005    0.54551998    -0.11880000
opls_700-103    C    0.53057035    0.45675008    0.41562006    -0.00200000
opls_700-104    C    0.40256066    0.44743003    0.38928999    0.06970000
opls_145-105    C    0.27048018    0.42220007    0.38148008    -0.12630000
opls_145-106    C    0.26489050    0.40640001    0.39889987    -0.12880000
opls_700-107    C    0.66328990    0.48264992    0.42420992    -0.00210000
opls_700-108    C    0.79333936    0.49164985    0.45004989    -0.00250000
opls_700-109    C    0.92449042    0.51766012    0.45873004    -0.00010000
opls_700-110    C    0.05818025    0.52679994    0.48451005    0.02980000
opls_145-111    C    0.41062054    0.46406007    0.37150996    -0.12970000
opls_145-112    C    0.53423990    0.48920011    0.38005005    -0.12990000
opls_700-113    C    0.66415951    0.49965994    0.40671997    0.03450000
opls_700-114    C    0.78994995    0.52572997    0.41562006    -0.02700000
opls_700-115    C    0.92015991    0.53507006    0.44177997    0.03420000
opls_145-116    C    0.18082058    0.55303005    0.49283993    -0.12860000
opls_145-117    C    0.17210996    0.57053992    0.47678996    -0.08330000
opls_145-118    C    0.04489984    0.56187011    0.45171003    -0.12890000
opls_148-119    C    0.94834031    0.35720002    0.50725985    -0.43810000
opls_148-120    C    0.33138013    0.41567002    0.56183988    -0.41200000
opls_148-121    C    0.48561069    0.57305000    0.42710007    -0.41230000
opls_148-122    C    0.09996936    0.51523990    0.37048994    -0.42360000
opls_423-123    C    0.75710054    0.59734009    0.29195001    0.24490000
opls_700-124    C    0.46032070    0.87632012    0.06534005    -0.02490000
opls_700-125    C    0.61349052    0.87188002    0.04404990    0.10370000
opls_145-126    C    0.62274976    0.89087001    0.02967999    -0.17740000
opls_700-127    C    0.48391963    0.91494000    0.03656989    0.09790000
opls_145-128    C    0.32963071    0.91878992    0.05735002    -0.17380000
opls_700-129    C    0.31657061    0.89970003    0.07159007    0.10600000
opls_142-130    C    0.50044939    0.93434996    0.02111999    -0.13160000
opls_142-131    C    0.41097072    0.96269009    0.03065000    -0.17500000
opls_700-132    C    0.42136948    0.96489000    0.97963982    -0.06030000
opls_700-133    C    0.41915024    0.98294007    0.96381997    0.03340000
opls_521-134    C    0.24594015    0.67708993    0.31370989    0.19090000
opls_142-135    C    0.23988940    0.69029002    0.29219009    -0.19510000
opls_142-136    C    0.31399974    0.67601985    0.26245986    -0.16320000
opls_700-137    C    0.30660957    0.69045004    0.24197004    0.10110000
opls_145-138    C    0.15814961    0.71215999    0.24545006    -0.17380000
opls_700-139    C    0.15184061    0.72608013    0.22608004    0.09960000
opls_700-140    C    0.29761005    0.71886002    0.20292001    -0.02500000
opls_700-141    C    0.44731021    0.69718007    0.19928996    0.11050000
opls_145-142    C    0.44861024    0.68283013    0.21834004    -0.17650000
opls_145-143    C    0.04221953    0.69933004    0.14782996    -0.12890000
opls_700-144    C    0.17335016    0.72515992    0.15660989    0.03430000
opls_700-145    C    0.17786013    0.74098000    0.13807006    -0.00060000
opls_700-146    C    0.04923034    0.73089991    0.11148996    0.02970000
opls_145-147    C    0.92398996    0.70508004    0.10381987    -0.12990000
opls_145-148    C    0.92149058    0.68941992    0.12175987    -0.08770000
opls_700-149    C    0.31201978    0.76649009    0.14612005    -0.00270000
opls_700-150    C    0.43844055    0.77620992    0.17252003    -0.00210000
opls_700-151    C    0.42906022    0.76078995    0.19145991    0.03420000
opls_700-152    C    0.29960022    0.73530007    0.18334001    -0.02800000
opls_145-153    C    0.55292032    0.77233996    0.21896998    -0.12990000
opls_145-154    C    0.68338999    0.79633999    0.22629002    -0.12690000
opls_700-155    C    0.70269052    0.81094988    0.20678989    0.06900000
opls_700-156    C    0.57606986    0.80127991    0.18026998    -0.00250000
opls_700-157    C    0.05385996    0.74759009    0.09311010    0.03110000
opls_700-158    C    0.18935028    0.77295001    0.10134992    -0.00130000
opls_700-159    C    0.31986956    0.78245009    0.12766008    -0.00100000
opls_700-160    C    0.45484045    0.80751996    0.13553991    -0.00200000
opls_700-161    C    0.58609072    0.81691997    0.16175006    -0.00150000
opls_700-162    C    0.72395932    0.84185997    0.16967989    0.03020000
opls_145-163    C    0.85322964    0.84973002    0.19518996    -0.12390000
opls_145-164    C    0.84260035    0.83485001    0.21341009    -0.11790000
opls_700-165    C    0.19592045    0.78921006    0.08334996    -0.00210000
opls_700-166    C    0.06777945    0.77985002    0.05703008    0.06590000
opls_145-167    C    0.93427054    0.75487008    0.04950006    -0.12610000
opls_145-168    C    0.92744941    0.73933002    0.06715993    -0.12890000
opls_700-169    C    0.32989042    0.81490999    0.09169998    -0.00210000
opls_700-170    C    0.45973999    0.82399010    0.11758000    -0.00250000
opls_700-171    C    0.59161037    0.84989004    0.12609995    -0.00050000
opls_700-172    C    0.72490042    0.85915993    0.15196006    0.02980000
opls_145-173    C    0.07713936    0.79620994    0.03900003    -0.13010000
opls_145-174    C    0.20196974    0.82114995    0.04730004    -0.12990000
opls_700-175    C    0.33181931    0.83169008    0.07399011    0.03450000
opls_700-176    C    0.45819047    0.85767000    0.08274989    -0.02660000
opls_700-177    C    0.58805025    0.86711995    0.10897000    0.03420000
opls_145-178    C    0.84773042    0.88533998    0.16018993    -0.12840000
opls_145-179    C    0.83955965    0.90271004    0.14399990    -0.08120000
opls_145-180    C    0.71292003    0.89388993    0.11881996    -0.12890000
opls_148-181    C    0.60769949    0.69027985    0.17562987    -0.42360000
opls_148-182    C    0.99435050    0.74960998    0.23069006    -0.41210000
opls_148-183    C    0.15349957    0.90480007    0.09431996    -0.41230000
opls_148-184    C    0.76799977    0.84729998    0.03751004    -0.42360000
opls_423-185    C    0.42477932    0.93065002    0.96070989    0.24510000
opls_700-186    C    0.09840962    0.51728987    0.78679989    -0.02470000
opls_700-187    C    0.24753929    0.50028992    0.79216994    0.10620000
opls_145-188    C    0.25183040    0.46699988    0.77454989    -0.17570000
opls_700-189    C    0.11400995    0.45004997    0.75053999    0.09410000
opls_145-190    C    0.96581992    0.46720010    0.74531000    -0.17570000
opls_700-191    C    0.95581073    0.50041988    0.76338982    0.10240000
opls_142-192    C    0.12573938    0.41522005    0.73158992    -0.12960000
opls_142-193    C    0.06304040    0.39842003    0.70123995    -0.19510000
opls_521-194    C    0.08445949    0.31351992    0.67874990    0.18840000
opls_521-195    C    0.92525059    0.96488991    0.98638989    0.19060000
opls_700-196    C    0.91539023    0.98485995    0.01988003    -0.06020000
opls_142-197    C    0.92281979    0.92990998    0.97151992    -0.17150000
opls_142-198    C    0.00730992    0.91285989    0.98367986    -0.13040000
opls_700-199    C    0.99565052    0.87819001    0.96977990    0.09770000
opls_145-200    C    0.84434977    0.86030990    0.94893981    -0.17630000
opls_700-201    C    0.83626071    0.82720990    0.93588995    0.10240000
opls_700-202    C    0.98185068    0.81121992    0.94336996    -0.02470000
opls_700-203    C    0.13259991    0.82901003    0.96463997    0.11050000
opls_145-204    C    0.13661964    0.86214990    0.97786994    -0.17630000
opls_145-205    C    0.72853057    0.77616987    0.96439989    -0.12880000
opls_700-206    C    0.85421013    0.75900988    0.93804992    0.03430000
opls_700-207    C    0.85197047    0.72480002    0.92214997    -0.00060000
opls_700-208    C    0.72044005    0.70856997    0.93244002    0.03130000
opls_145-209    C    0.60037936    0.72681007    0.95870990    -0.12990000
opls_145-210    C    0.60578957    0.76024987    0.97460985    -0.09120000
opls_700-211    C    0.98223004    0.70719997    0.89633986    -0.00260000
opls_700-212    C    0.11233057    0.72365000    0.88655981    -0.00210000
opls_700-213    C    0.10903016    0.75788992    0.90196990    0.03430000
opls_700-214    C    0.98185068    0.77537009    0.92752997    -0.02790000
opls_145-215    C    0.23676992    0.77363007    0.89036997    -0.12970000
opls_145-216    C    0.36530049    0.75681997    0.86634988    -0.12890000
opls_700-217    C    0.37755957    0.72272995    0.85156997    0.06910000
opls_700-218    C    0.24683018    0.70614999    0.86127986    -0.00250000
opls_700-219    C    0.71685951    0.67367000    0.91548000    0.03110000
opls_700-220    C    0.84849935    0.65640003    0.88980995    -0.00130000
opls_700-221    C    0.98287057    0.67291990    0.88022993    -0.00090000
opls_700-222    C    0.11445059    0.65557995    0.85491988    -0.00210000
opls_700-223    C    0.24956009    0.67208986    0.84544983    -0.00200000
opls_700-224    C    0.38391963    0.65491007    0.82024003    0.03030000
opls_145-225    C    0.51752046    0.67222004    0.81232987    -0.12530000
opls_145-226    C    0.51424048    0.70522989    0.82743992    -0.12100000
opls_700-227    C    0.84744007    0.62228992    0.87332984    -0.00210000
opls_700-228    C    0.71498023    0.60562986    0.88270984    0.06630000
opls_145-229    C    0.58500956    0.62322001    0.90794002    -0.12630000
opls_145-230    C    0.58599005    0.65628986    0.92375987    -0.12890000
opls_700-231    C    0.97836059    0.60480990    0.84744982    -0.00090000
opls_700-232    C    0.11231014    0.62129995    0.83831985    -0.00250000
opls_700-233    C    0.24104061    0.60381011    0.81225000    -0.00040000
opls_700-234    C    0.37739031    0.62009004    0.80278990    0.03060000
opls_145-235    C    0.71651954    0.57136999    0.86610981    -0.12990000
opls_145-236    C    0.83906941    0.55462997    0.84108984    -0.12990000
opls_700-237    C    0.97389002    0.57049005    0.83065000    0.03450000
opls_700-238    C    0.09905015    0.55317998    0.80476999    -0.02790000
opls_700-239    C    0.23165006    0.56965995    0.79508995    0.03420000
opls_145-240    C    0.49597006    0.60207996    0.77629985    -0.12890000
opls_145-241    C    0.48156033    0.56876994    0.75894997    -0.08310000
opls_145-242    C    0.35321067    0.55267009    0.76811999    -0.12890000
opls_148-243    C    0.29042999    0.81224986    0.97235982    -0.43820000
opls_148-244    C    0.67678043    0.80852005    0.91299985    -0.41220000
opls_148-245    C    0.79684988    0.51825004    0.75741994    -0.41230000
opls_148-246    C    0.40378044    0.51807000    0.81620994    -0.42350000
opls_423-247    C    0.91363059    0.97192002    0.04107989    0.23920000
opls_700-248    C    0.75382056    0.85056998    0.45337989    -0.02490000
opls_700-249    C    0.90315012    0.83347994    0.45858998    0.10620000
opls_145-250    C    0.90790960    0.80020988    0.44071989    -0.17600000
opls_700-251    C    0.77009936    0.78340007    0.41665004    0.09840000
opls_145-252    C    0.62133008    0.80062007    0.41167008    -0.17900000
opls_700-253    C    0.61108015    0.83381009    0.42997007    0.10370000
opls_142-254    C    0.78269986    0.74863003    0.39733002    -0.13590000
opls_142-255    C    0.72095073    0.73205991    0.36690990    -0.19510000
opls_521-256    C    0.74749989    0.64729995    0.34448005    0.18240000
opls_521-257    C    0.59060070    0.29822003    0.65193992    0.19080000
opls_700-258    C    0.58242993    0.31814991    0.68544997    -0.06030000
opls_142-259    C    0.58675022    0.26324001    0.63702989    -0.17160000
opls_142-260    C    0.67178021    0.24610005    0.64905001    -0.14430000
opls_700-261    C    0.65854940    0.21145993    0.63527993    0.09770000
opls_145-262    C    0.50624042    0.19370000    0.61461994    -0.17630000
opls_700-263    C    0.49655952    0.16063000    0.60174997    0.10620000
opls_700-264    C    0.64152064    0.14455004    0.60924989    -0.02490000
opls_700-265    C    0.79325036    0.16224991    0.63034997    0.11130000
opls_145-266    C    0.79891008    0.19535993    0.64338987    -0.17630000
opls_145-267    C    0.38711061    0.10975004    0.63051989    -0.12880000
opls_700-268    C    0.51249982    0.09247992    0.60415996    0.03450000
opls_700-269    C    0.50980055    0.05826985    0.58834983    -0.00080000
opls_700-270    C    0.37798999    0.04216007    0.59872995    0.02970000
opls_145-271    C    0.25832032    0.06049008    0.62501001    -0.12990000
opls_145-272    C    0.26429958    0.09392997    0.64084005    -0.08770000
opls_700-273    C    0.63999008    0.04056999    0.56255987    -0.00260000
opls_700-274    C    0.77057940    0.05689990    0.55271987    -0.00200000
opls_700-275    C    0.76770941    0.09113998    0.56802994    0.03430000
opls_700-276    C    0.64047011    0.10871993    0.59354001    -0.02790000
opls_145-277    C    0.89612034    0.10676010    0.55638996    -0.12990000
opls_145-278    C    0.02491939    0.08985000    0.53244002    -0.12890000
opls_700-279    C    0.03660942    0.05576995    0.51774993    0.06910000
opls_700-280    C    0.90517968    0.03929001    0.52747997    -0.00250000
opls_700-281    C    0.37379955    0.00724990    0.58182988    0.03130000
opls_700-282    C    0.50535039    0.98986995    0.55617998    -0.00130000
opls_700-283    C    0.64017976    0.00628008    0.54654000    -0.00100000
opls_700-284    C    0.77172038    0.98884005    0.52126005    -0.00210000
opls_700-285    C    0.90732013    0.00524001    0.51173004    -0.00150000
opls_700-286    C    0.04156003    0.98796002    0.48652995    0.03020000
opls_145-287    C    0.17591958    0.00515987    0.47860984    -0.12400000
opls_145-288    C    0.17337059    0.03816990    0.49366988    -0.12100000
opls_700-289    C    0.50373959    0.95576008    0.53977002    -0.00210000
opls_700-290    C    0.37066986    0.93920001    0.54918983    0.06590000
opls_145-291    C    0.24077943    0.95689993    0.57439987    -0.12630000
opls_145-292    C    0.24241067    0.98996993    0.59015999    -0.12930000
opls_700-293    C    0.63468929    0.93818013    0.51393005    -0.00090000
opls_700-294    C    0.76909990    0.95455990    0.50473989    -0.00250000
opls_700-295    C    0.89758962    0.93698001    0.47867004    -0.00010000
opls_700-296    C    0.03412026    0.95314996    0.46909997    0.02940000
opls_145-297    C    0.37150007    0.90494008    0.53264005    -0.12970000
opls_145-298    C    0.49417979    0.88809995    0.50766985    -0.12990000
opls_700-299    C    0.62971971    0.90386002    0.49720987    0.03450000
opls_700-300    C    0.75489006    0.88644992    0.47134999    -0.02790000
opls_700-301    C    0.88758043    0.90283998    0.46156995    0.03420000
opls_145-302    C    0.15179976    0.93505987    0.44251987    -0.12860000
opls_145-303    C    0.13645038    0.90175989    0.42518989    -0.08330000
opls_145-304    C    0.00830938    0.88575995    0.43450993    -0.12990000
opls_148-305    C    0.95043991    0.14539996    0.63808001    -0.43820000
opls_148-306    C    0.33612939    0.14204994    0.57901984    -0.41230000
opls_148-307    C    0.45211929    0.85174009    0.42414001    -0.41220000
opls_148-308    C    0.05934021    0.85116003    0.48267998    -0.42360000
opls_423-309    C    0.58049958    0.30512990    0.70658986    0.23920000
opls_700-310    C    0.42698980    0.18440004    0.12089010    -0.02490000
opls_700-311    C    0.57637043    0.16751992    0.12636989    0.10620000
opls_145-312    C    0.58078994    0.13422012    0.10890009    -0.17580000
opls_700-313    C    0.44293010    0.11716000    0.08493000    0.09410000
opls_145-314    C    0.29442053    0.13420003    0.07963010    -0.17910000
opls_700-315    C    0.28419978    0.16741993    0.09755991    0.10240000
opls_142-316    C    0.45526066    0.08232015    0.06605009    -0.16320000
opls_142-317    C    0.39342983    0.06544009    0.03567002    -0.19890000
opls_521-318    C    0.41821936    0.98062005    0.01337004    0.18840000
opls_521-319    C    0.25511038    0.63253009    0.32121005    0.19070000
opls_700-320    C    0.24625968    0.65244989    0.35471986    -0.05890000
opls_142-321    C    0.25328946    0.59753015    0.30608009    -0.17160000
opls_142-322    C    0.33825963    0.58021004    0.31789995    -0.13050000
opls_700-323    C    0.32786962    0.54547995    0.30348998    0.09770000
opls_145-324    C    0.17713060    0.52765996    0.28246005    -0.17910000
opls_700-325    C    0.16936983    0.49453008    0.26914997    0.10240000
opls_700-326    C    0.31492041    0.47842997    0.27651007    -0.02430000
opls_700-327    C    0.46577031    0.49612990    0.29779998    0.11050000
opls_145-328    C    0.46926040    0.52931000    0.31132999    -0.17630000
opls_145-329    C    0.06150984    0.44367998    0.29778007    -0.12880000
opls_700-330    C    0.18638983    0.42636999    0.27134999    0.03430000
opls_700-331    C    0.18350964    0.39217009    0.25556001    0.00120000
opls_700-332    C    0.05195004    0.37610000    0.26601999    0.03040000
opls_145-333    C    0.93275019    0.39446006    0.29236001    -0.12990000
opls_145-334    C    0.93893955    0.42789990    0.30817986    -0.08770000
opls_700-335    C    0.31333003    0.37445000    0.22972999    -0.00260000
opls_700-336    C    0.44380991    0.39074011    0.21983003    -0.00200000
opls_700-337    C    0.44116025    0.42499002    0.23513986    0.03450000
opls_700-338    C    0.31416023    0.44259004    0.26068003    -0.02790000
opls_145-339    C    0.56972001    0.44059002    0.22349989    -0.12970000
opls_145-340    C    0.69833958    0.42364995    0.19953004    -0.12890000
opls_700-341    C    0.70965026    0.38956011    0.18481008    0.06910000
opls_700-342    C    0.57818988    0.37311008    0.19456999    -0.00250000
opls_700-343    C    0.04759035    0.34119994    0.24915002    0.03110000
opls_700-344    C    0.17878956    0.32378996    0.22344988    -0.00130000
opls_700-345    C    0.31338985    0.34017009    0.21373998    -0.00100000
opls_700-346    C    0.44465033    0.32268998    0.18841003    -0.00080000
opls_700-347    C    0.58015962    0.33905997    0.17883996    -0.00150000
opls_700-348    C    0.71430030    0.32173003    0.15362992    0.03030000
opls_145-349    C    0.84854020    0.33891010    0.14565009    -0.12620000
opls_145-350    C    0.84615025    0.37193003    0.16069994    -0.12140000
opls_700-351    C    0.17717000    0.28967991    0.20708992    -0.00200000
opls_700-352    C    0.04450005    0.27316007    0.21660999    0.06970000
opls_145-353    C    0.91482995    0.29088990    0.24184988    -0.12530000
opls_145-354    C    0.91642033    0.32394996    0.25755005    -0.12880000
opls_700-355    C    0.30777974    0.27204992    0.18119995    -0.00200000
opls_700-356    C    0.44193064    0.28840986    0.17193987    -0.00260000
opls_700-357    C    0.57035032    0.27078001    0.14586006    -0.00040000
opls_700-358    C    0.70699038    0.28692000    0.13627009    0.02940000
opls_145-359    C    0.04562937    0.23888996    0.20015002    -0.12990000
opls_145-360    C    0.16804062    0.22201992    0.17514996    -0.12990000
opls_700-361    C    0.30290938    0.23775998    0.16456010    0.03450000
opls_700-362    C    0.42772955    0.22028992    0.13865994    -0.02780000
opls_700-363    C    0.56039949    0.23663990    0.12882989    0.03420000
opls_145-364    C    0.82516013    0.26878007    0.10977009    -0.12890000
opls_145-365    C    0.81012008    0.23546993    0.09252994    -0.08310000
opls_145-366    C    0.68157929    0.21951009    0.10184002    -0.12880000
opls_148-367    C    0.62403957    0.47926002    0.30528995    -0.43820000
opls_148-368    C    0.00993040    0.47590992    0.24620987    -0.41230000
opls_148-369    C    0.12503028    0.18513997    0.09147010    -0.41220000
opls_148-370    C    0.73292966    0.18541994    0.15029992    -0.42360000
opls_423-371    C    0.24266017    0.63933997    0.37577989    0.24510000
opls_700-372    C    0.13764974    0.26379990    0.47510991    -0.02670000
opls_700-373    C    0.28838000    0.28562991    0.49169998    0.09980000
opls_145-374    C    0.29347943    0.30067003    0.52475998    -0.17070000
opls_700-375    C    0.15382056    0.29373012    0.54176006    0.09850000
opls_145-376    C    0.00408976    0.27187997    0.52492991    -0.17270000
opls_700-377    C    0.99415060    0.25711007    0.49191991    0.09960000
opls_142-378    C    0.16551060    0.30984998    0.57632995    -0.14560000
opls_142-379    C    0.07640982    0.29961998    0.59458989    -0.13160000
opls_700-380    C    0.07991012    0.34949988    0.64815986    -0.08810000
opls_521-381    C    0.07506019    0.36366991    0.68178983    0.18550000
opls_700-382    C    0.90599968    0.01835994    0.03315006    0.03360000
opls_700-383    C    0.90714067    0.03066997    0.01205993    -0.08850000
opls_142-384    C    0.88794957    0.03874998    0.06754007    -0.13170000
opls_142-385    C    0.97169996    0.06777013    0.08435008    -0.12720000
opls_700-386    C    0.95395042    0.08822003    0.11865003    0.09850000
opls_145-387    C    0.80217984    0.08444995    0.13609993    -0.17270000
opls_700-388    C    0.79025052    0.10402997    0.16893004    0.09980000
opls_700-389    C    0.93343012    0.12763987    0.18494991    -0.03050000
opls_700-390    C    0.08506062    0.13188988    0.16766994    0.10370000
opls_145-391    C    0.09194012    0.11253993    0.13475996    -0.17070000
opls_145-392    C    0.68059005    0.18329011    0.22065003    -0.12850000
opls_700-393    C    0.81292003    0.17396004    0.23715005    0.03450000
opls_700-394    C    0.82331004    0.19244999    0.27104996    -0.01570000
opls_700-395    C    0.69906036    0.21965997    0.28773009    0.03030000
opls_145-396    C    0.57159928    0.22782006    0.27018990    -0.12990000
opls_145-397    C    0.56332930    0.20983989    0.23697989    -0.09120000
opls_700-398    C    0.95970060    0.18381004    0.28777986    -0.00250000
opls_700-399    C    0.08149029    0.15675008    0.27092008    -0.00250000
opls_700-400    C    0.06571049    0.13780990    0.23707990    0.03440000
opls_700-401    C    0.93528021    0.14673989    0.22046991    -0.02430000
opls_145-402    C    0.18473963    0.10962991    0.22081000    -0.12990000
opls_145-403    C    0.31709004    0.10166990    0.23675996    -0.12700000
opls_700-404    C    0.34379970    0.12124989    0.27032997    0.06900000
opls_700-405    C    0.22189037    0.14843005    0.28744001    0.00120000
opls_700-406    C    0.71070954    0.23813000    0.32233008    0.03110000
opls_700-407    C    0.84867006    0.22934002    0.33870994    -0.00070000
opls_700-408    C    0.97475962    0.20237994    0.32168996    -0.00200000
opls_700-409    C    0.11261071    0.19396999    0.33810988    -0.00210000
opls_700-410    C    0.23958008    0.16714008    0.32107994    -0.00210000
opls_700-411    C    0.38077972    0.15876010    0.33731997    0.03080000
opls_145-412    C    0.50511986    0.13256996    0.31942003    -0.12500000
opls_145-413    C    0.48675022    0.11413010    0.28681008    -0.11880000
opls_700-414    C    0.86209930    0.24741994    0.37249989    -0.00260000
opls_700-415    C    0.73856019    0.27436991    0.38972985    0.06630000
opls_145-416    C    0.60276931    0.28251013    0.37303004    -0.12530000
opls_145-417    C    0.58914017    0.26474992    0.34025989    -0.12890000
opls_700-418    C    0.99839065    0.23845013    0.38907006    -0.00270000
opls_700-419    C    0.12445978    0.21201991    0.37206998    -0.00180000
opls_700-420    C    0.25943943    0.20304000    0.38872002    -0.00100000
opls_700-421    C    0.38963042    0.17674011    0.37190005    0.03000000
opls_145-422    C    0.75428017    0.29238005    0.42368000    -0.12990000
opls_145-423    C    0.88016984    0.28334002    0.43962000    -0.12970000
opls_700-424    C    0.00589025    0.25607001    0.42310008    0.03440000
opls_700-425    C    0.13409983    0.24664994    0.43957000    -0.02430000
opls_700-426    C    0.26193005    0.22017987    0.42267988    0.03440000
opls_145-427    C    0.51678947    0.16831010    0.38923003    -0.12890000
opls_145-428    C    0.51532019    0.18468003    0.42246991    -0.08310000
opls_145-429    C    0.39050002    0.21012006    0.43905999    -0.12880000
opls_148-430    C    0.24131929    0.15632993    0.18469988    -0.42330000
opls_148-431    C    0.63054992    0.09936002    0.18744996    -0.41210000
opls_148-432    C    0.83456965    0.23367000    0.47421004    -0.42360000
opls_148-433    C    0.44403023    0.29205008    0.47376994    -0.42360000
opls_423-434    C    0.07707953    0.36976005    0.63408002    0.24010000
opls_423-435    C    0.89526971    0.06443986    0.02349989    0.24410000
opls_700-436    C    0.82003006    0.59726997    0.14083010    -0.02670000
opls_700-437    C    0.96826969    0.61948008    0.15776002    0.09980000
opls_145-438    C    0.96935962    0.63474003    0.19086008    -0.17110000
opls_700-439    C    0.82889972    0.62751006    0.20753998    0.09780000
opls_145-440    C    0.68212061    0.60519003    0.19033987    -0.16820000
opls_700-441    C    0.67564965    0.59030009    0.15730997    0.10350000
opls_142-442    C    0.83673928    0.64373999    0.24214992    -0.12720000
opls_142-443    C    0.74830967    0.63321008    0.26022003    -0.13160000
opls_700-444    C    0.74441980    0.68315997    0.31375989    -0.08850000
opls_521-445    C    0.73550929    0.69735010    0.34736000    0.19080000
opls_700-446    C    0.57471001    0.35165001    0.69878991    0.03370000
opls_700-447    C    0.57563944    0.36403012    0.67775002    -0.08810000
opls_142-448    C    0.55834950    0.37195008    0.73321997    -0.13170000
opls_142-449    C    0.64290967    0.40089992    0.75007999    -0.13160000
opls_700-450    C    0.62689058    0.42115002    0.78442995    0.09770000
opls_145-451    C    0.47644046    0.41725004    0.80200995    -0.17270000
opls_700-452    C    0.46629995    0.43664991    0.83487988    0.09980000
opls_700-453    C    0.60979033    0.46022999    0.85079997    -0.02690000
opls_700-454    C    0.76023024    0.46458993    0.83341999    0.10230000
opls_145-455    C    0.76540992    0.44540998    0.80047991    -0.17110000
opls_145-456    C    0.35743029    0.51581993    0.88649985    -0.12880000
opls_700-457    C    0.49042999    0.50657998    0.90298992    0.03450000
opls_700-458    C    0.50181070    0.52519996    0.93686992    -0.00050000
opls_700-459    C    0.37782949    0.55244992    0.95353987    0.03040000
opls_145-460    C    0.24966952    0.56051005    0.93600987    -0.12990000
opls_145-461    C    0.24043947    0.54242005    0.90282995    -0.08950000
opls_700-462    C    0.63893955    0.51665003    0.95356996    -0.00250000
opls_700-463    C    0.76026964    0.48952987    0.93672986    -0.00250000
opls_700-464    C    0.74346995    0.47046995    0.90290982    0.03440000
opls_700-465    C    0.61253046    0.47932011    0.88631002    -0.02410000
opls_145-466    C    0.86197966    0.44222987    0.88665983    -0.12990000
opls_145-467    C    0.99465982    0.43429986    0.90258987    -0.12700000
opls_700-468    C    0.02251047    0.45402004    0.93611983    0.06900000
opls_700-469    C    0.90125042    0.48127994    0.95321992    0.00140000
opls_700-470    C    0.39051024    0.57105988    0.98812990    0.03110000
opls_700-471    C    0.52942936    0.56239001    0.00447990    -0.00100000
opls_700-472    C    0.65519938    0.53539009    0.98745992    -0.00150000
opls_700-473    C    0.79375958    0.52705994    0.00385993    -0.00200000
opls_700-474    C    0.92012052    0.50013997    0.98682999    -0.00210000
opls_700-475    C    0.06180020    0.49183994    0.00306007    0.03070000
opls_145-476    C    0.18551002    0.46554993    0.98514993    -0.12530000
opls_145-477    C    0.16600960    0.44695987    0.95256985    -0.11790000
opls_700-478    C    0.54399959    0.58061992    0.03823999    -0.00270000
opls_700-479    C    0.42044005    0.60758001    0.05547990    0.06900000
opls_145-480    C    0.28355049    0.61554995    0.03880000    -0.12530000
opls_145-481    C    0.26893940    0.59766005    0.00604999    -0.12890000
opls_700-482    C    0.68124954    0.57178002    0.05479001    -0.00270000
opls_700-483    C    0.80685031    0.54528001    0.03779989    0.00120000
opls_700-484    C    0.94225017    0.53637999    0.05444992    -0.00100000
opls_700-485    C    0.07161971    0.50995000    0.03762996    0.03000000
opls_145-486    C    0.43728935    0.62573006    0.08939995    -0.12890000
opls_145-487    C    0.56424997    0.61683001    0.10532005    -0.12880000
opls_700-488    C    0.68971942    0.58954002    0.08881008    0.03440000
opls_700-489    C    0.81817996    0.58016990    0.10528995    -0.02410000
opls_700-490    C    0.94554037    0.55363993    0.08841003    0.03440000
opls_145-491    C    0.19865036    0.50150996    0.05496989    -0.12890000
opls_145-492    C    0.19784934    0.51799000    0.08821001    -0.08680000
opls_145-493    C    0.07393962    0.54357009    0.10480008    -0.12880000
opls_148-494    C    0.91683033    0.48898005    0.85035988    -0.43820000
opls_148-495    C    0.30774034    0.43195992    0.85354982    -0.41210000
opls_148-496    C    0.51853014    0.56649991    0.13921000    -0.41230000
opls_148-497    C    0.12528999    0.62612995    0.14018002    -0.42360000
opls_423-498    C    0.74252010    0.70343989    0.29970992    0.24220000
opls_423-499    C    0.56597021    0.39781991    0.68924994    0.24010000
opls_700-500    C    0.47608007    0.93053994    0.80963003    -0.02670000
opls_700-501    C    0.62710069    0.95228008    0.82625992    0.09980000
opls_145-502    C    0.63177991    0.96731998    0.85931992    -0.16740000
opls_700-503    C    0.49147030    0.96044992    0.87627995    0.09760000
opls_145-504    C    0.34178035    0.93861003    0.85940003    -0.17470000
opls_700-505    C    0.33220013    0.92385008    0.82639003    0.09960000
opls_142-506    C    0.50229949    0.97667000    0.91086998    -0.14560000
opls_142-507    C    0.41288063    0.96648005    0.92912992    -0.13180000
opls_700-508    C    0.41356931    0.01646996    0.98263993    -0.08810000
opls_521-509    C    0.40709981    0.03067989    0.01625994    0.18580000
opls_700-510    C    0.23871048    0.68597999    0.36806004    0.03310000
opls_700-511    C    0.23892058    0.69833001    0.34700001    -0.08850000
opls_142-512    C    0.22313057    0.70651988    0.40247991    -0.13050000
opls_142-513    C    0.30788041    0.73550995    0.41893988    -0.13150000
opls_700-514    C    0.29195033    0.75632995    0.45321992    0.09770000
opls_145-515    C    0.14026001    0.75302984    0.47096985    -0.17480000
opls_700-516    C    0.13037046    0.77280000    0.50379001    0.09980000
opls_700-517    C    0.27529947    0.79617002    0.51947999    -0.02820000
opls_700-518    C    0.42669069    0.80001003    0.50189998    0.10630000
opls_145-519    C    0.43161066    0.78045998    0.46899995    -0.16820000
opls_145-520    C    0.02548988    0.85215011    0.55535998    -0.12860000
opls_700-521    C    0.15725958    0.84263005    0.57176994    0.03450000
opls_700-522    C    0.16738988    0.86095006    0.60569000    -0.01570000
opls_700-523    C    0.04349038    0.88817996    0.62245995    0.03030000
opls_145-524    C    0.91650058    0.89651992    0.60499987    -0.12980000
opls_145-525    C    0.90835023    0.87869995    0.57178985    -0.08950000
opls_700-526    C    0.30272991    0.85202985    0.62232984    -0.00250000
opls_700-527    C    0.42377986    0.82487999    0.60537005    -0.00250000
opls_700-528    C    0.40819995    0.80613000    0.57150996    0.03450000
opls_700-529    C    0.27877059    0.81530995    0.55499003    -0.02420000
opls_145-530    C    0.52598013    0.77783010    0.55515996    -0.12970000
opls_145-531    C    0.65706990    0.76956001    0.57103005    -0.12790000
opls_700-532    C    0.68361031    0.78894995    0.60462992    0.06920000
opls_700-533    C    0.56278944    0.81623994    0.62181983    0.00140000
opls_700-534    C    0.05456031    0.90642991    0.65707985    0.03110000
opls_700-535    C    0.19128938    0.89734002    0.67337985    -0.00100000
opls_700-536    C    0.31702000    0.87034004    0.65625985    -0.00200000
opls_700-537    C    0.45362067    0.86162992    0.67260985    -0.00210000
opls_700-538    C    0.57999037    0.83472995    0.65548986    -0.00210000
opls_700-539    C    0.71992938    0.82607008    0.67166993    0.03080000
opls_145-540    C    0.84330945    0.79974992    0.65367993    -0.12530000
opls_145-541    C    0.82519953    0.78149993    0.62104984    -0.11790000
opls_700-542    C    0.20367976    0.91512999    0.70719989    -0.00200000
opls_700-543    C    0.08029969    0.94209004    0.72454005    0.06630000
opls_145-544    C    0.94592994    0.95053992    0.70789997    -0.12610000
opls_145-545    C    0.93336008    0.93306003    0.67509995    -0.12890000
opls_700-546    C    0.33872945    0.90585995    0.72368995    -0.00210000
opls_700-547    C    0.46460014    0.87940996    0.70658986    -0.00200000
opls_700-548    C    0.59854969    0.87017994    0.72316004    -0.00100000
opls_700-549    C    0.72845033    0.84384010    0.70625001    0.03000000
opls_145-550    C    0.09468025    0.95974988    0.75850987    -0.12880000
opls_145-551    C    0.21950042    0.95043997    0.77435982    -0.12970000
opls_700-552    C    0.34528941    0.92320005    0.75772993    0.03440000
opls_700-553    C    0.47274027    0.91355000    0.77409984    -0.02470000
opls_700-554    C    0.60046982    0.88710007    0.75711990    0.03450000
opls_145-555    C    0.85506952    0.83523989    0.72350984    -0.12860000
opls_145-556    C    0.85326028    0.85143010    0.75674000    -0.08330000
opls_145-557    C    0.72844011    0.87685006    0.77340995    -0.12860000
opls_148-558    C    0.58494974    0.82418005    0.51860998    -0.43810000
opls_148-559    C    0.97145046    0.76843001    0.52261993    -0.41230000
opls_148-560    C    0.17285992    0.90036006    0.80862991    -0.41230000
opls_148-561    C    0.78349067    0.95862992    0.80837988    -0.42360000
opls_423-562    C    0.41076061    0.03665001    0.96846980    0.24010000
opls_423-563    C    0.22797029    0.73208997    0.35838000    0.23890000
opls_520-564    N    0.92452982    0.97736997    0.96663001    -0.29430000
opls_262-565    N    0.07801042    0.38663995    0.62344988    -0.30430000
opls_520-566    N    0.58923939    0.31073997    0.63223005    -0.28940000
opls_262-567    N    0.74420970    0.72042997    0.28920988    -0.30420000
opls_520-568    N    0.25334929    0.64506998    0.30150989    -0.28930000
opls_262-569    N    0.41176007    0.05345002    0.95774983    -0.30430000
opls_520-570    N    0.07680961    0.34576999    0.69633986    -0.28960000
opls_262-571    N    0.09194012    0.23624004    0.60991987    -0.30420000
opls_262-572    N    0.91474970    0.96253004    0.05894997    -0.29190000
opls_520-573    N    0.73665028    0.67952008    0.36196999    -0.29290000
opls_262-574    N    0.76268001    0.56992003    0.27603987    -0.29210000
opls_262-575    N    0.58156033    0.29570989    0.72442985    -0.30430000
opls_520-576    N    0.40892948    0.01285998    0.03087989    -0.29000000
opls_262-577    N    0.42975035    0.90327001    0.94457982    -0.30430000
opls_262-578    N    0.24108000    0.62973001    0.39346986    -0.30430000
opls_262-579    N    0.88787954    0.09141993    0.03192006    -0.30430000
opls_262-580    N    0.56092038    0.42484009    0.69774998    -0.30420000
opls_262-581    N    0.22107037    0.75905010    0.36662006    -0.30430000
opls_146-582    H    0.40966048    0.22048995    0.67884991    0.11100000
opls_146-583    H    0.88431066    0.26933007    0.72753993    0.10980000
opls_144-584    H    0.26369990    0.25773993    0.66586997    0.10730000
opls_144-585    H    0.99645009    0.30669989    0.71817984    0.10790000
opls_144-586    H    0.84899981    0.91744995    0.94867982    0.10680000
opls_144-587    H    0.06283030    0.98559988    0.91853983    0.10900000
opls_146-588    H    0.71767950    0.05014988    0.92795988    0.10910000
opls_146-589    H    0.24256971    0.99937994    0.88124000    0.11310000
opls_146-590    H    0.71828939    0.01990002    0.82716998    0.11350000
opls_146-591    H    0.50592964    0.02875996    0.74869001    0.11350000
opls_146-592    H    0.50439033    0.00146997    0.78012992    0.11100000
opls_146-593    H    0.21697040    0.09457010    0.89948999    0.11290000
opls_146-594    H    0.45155026    0.13797001    0.91263986    0.11090000
opls_146-595    H    0.63544947    0.20147991    0.86670988    0.11250000
opls_146-596    H    0.61685951    0.17499997    0.89866003    0.11160000
opls_146-597    H    0.50964005    0.08036993    0.69504990    0.11100000
opls_146-598    H    0.49886047    0.05259001    0.72583001    0.11240000
opls_146-599    H    0.65198068    0.12142995    0.68434984    0.10900000
opls_146-600    H    0.87488948    0.16682996    0.69960991    0.11180000
opls_146-601    H    0.62033938    0.22645988    0.84542992    0.11360000
opls_146-602    H    0.60210981    0.25690997    0.81724987    0.11220000
opls_146-603    H    0.37562047    0.24097003    0.77222995    0.11280000
opls_702-604    H    0.23230956    0.01801990    0.81857988    0.12480000
opls_702-605    H    0.38007937    0.04490991    0.84974985    0.14270000
opls_702-606    H    0.38097962    0.00442993    0.83948989    0.11900000
opls_702-607    H    0.55101040    0.08089990    0.91015995    0.12020000
opls_702-608    H    0.72731955    0.10640010    0.90799003    0.12790000
opls_702-609    H    0.61074018    0.07804992    0.87332984    0.11520000
opls_702-610    H    0.87772006    0.24897006    0.78416996    0.12590000
opls_702-611    H    0.71043962    0.25328005    0.75884996    0.12020000
opls_702-612    H    0.75519063    0.21542990    0.75502985    0.11530000
opls_702-613    H    0.37471001    0.15763006    0.69733998    0.12480000
opls_702-614    H    0.53326962    0.17760001    0.68393984    0.11900000
opls_702-615    H    0.52881072    0.18779007    0.72419001    0.12490000
opls_146-616    H    0.07346980    0.55495004    0.34592998    0.11160000
opls_146-617    H    0.54926974    0.60433009    0.39451003    0.10910000
opls_144-618    H    0.92862979    0.59182007    0.33249003    0.10740000
opls_144-619    H    0.65820943    0.64089995    0.38406995    0.10720000
opls_144-620    H    0.51133986    0.25086998    0.61432986    0.10720000
opls_144-621    H    0.72443060    0.31876998    0.58395003    0.10920000
opls_146-622    H    0.38033033    0.38350998    0.59376989    0.10980000
opls_146-623    H    0.90352073    0.33253994    0.54649000    0.11230000
opls_146-624    H    0.37912952    0.35367988    0.49290984    0.11330000
opls_146-625    H    0.16593957    0.36329001    0.41490007    0.11350000
opls_146-626    H    0.16457972    0.33563993    0.44599989    0.11050000
opls_146-627    H    0.87845981    0.42798014    0.56544006    0.11190000
opls_146-628    H    0.11269971    0.47149990    0.57889992    0.11160000
opls_146-629    H    0.29654931    0.53558000    0.53362002    0.11420000
opls_146-630    H    0.27774049    0.50879986    0.56527985    0.11160000
opls_146-631    H    0.17157010    0.41522008    0.36156995    0.11100000
opls_146-632    H    0.15996031    0.38723004    0.39215004    0.11330000
opls_146-633    H    0.31445059    0.45639998    0.35114006    0.10790000
opls_146-634    H    0.53673053    0.50195005    0.36675988    0.11290000
opls_146-635    H    0.28329953    0.56056988    0.51232987    0.11420000
opls_146-636    H    0.26633935    0.59116999    0.48430007    0.11220000
opls_146-637    H    0.03892934    0.57563004    0.43946003    0.11250000
opls_702-638    H    0.89144987    0.35130013    0.48400004    0.12470000
opls_702-639    H    0.03972015    0.37829013    0.51501004    0.12590000
opls_702-640    H    0.04151043    0.33784003    0.50486004    0.11740000
opls_702-641    H    0.21600012    0.41513994    0.57695988    0.11940000
opls_702-642    H    0.39052045    0.43979991    0.57289993    0.12600000
opls_702-643    H    0.26770941    0.41089998    0.53931997    0.11530000
opls_702-644    H    0.54152939    0.58288002    0.45120002    0.11990000
opls_702-645    H    0.37775946    0.58946996    0.42687990    0.12140000
opls_702-646    H    0.41262967    0.55076010    0.42137002    0.11900000
opls_702-647    H    0.03525979    0.49226006    0.36437003    0.12470000
opls_702-648    H    0.19622977    0.51229002    0.35136995    0.12000000
opls_702-649    H    0.18929046    0.52219991    0.39154997    0.12280000
opls_146-650    H    0.74167968    0.88747005    0.01343000    0.11100000
opls_146-651    H    0.21741979    0.93663011    0.06231008    0.10910000
opls_144-652    H    0.59838044    0.92500001    0.00076999    0.10740000
opls_144-653    H    0.32886032    0.97383002    0.05275992    0.10760000
opls_144-654    H    0.18048937    0.58524997    0.28313999    0.10680000
opls_144-655    H    0.38963042    0.65326988    0.25347991    0.10920000
opls_146-656    H    0.04412069    0.71796997    0.26310993    0.10900000
opls_146-657    H    0.56497950    0.66627994    0.21547004    0.11200000
opls_146-658    H    0.03794009    0.68749989    0.16197995    0.11330000
opls_146-659    H    0.82585027    0.69669996    0.08368010    0.11350000
opls_146-660    H    0.82281979    0.66943010    0.11512000    0.11090000
opls_146-661    H    0.54020018    0.76153004    0.23399992    0.11200000
opls_146-662    H    0.77519004    0.80490004    0.24722989    0.11080000
opls_146-663    H    0.96291930    0.86808987    0.20114990    0.11330000
opls_146-664    H    0.94229978    0.84174010    0.23320006    0.11090000
opls_146-665    H    0.83519996    0.74784998    0.02959988    0.11050000
opls_146-666    H    0.82142055    0.72033001    0.06060988    0.11300000
opls_146-667    H    0.98096065    0.78849999    0.01861993    0.10780000
opls_146-668    H    0.20544961    0.83370996    0.03382004    0.11200000
opls_146-669    H    0.94979062    0.89297009    0.17975002    0.11350000
opls_146-670    H    0.93374965    0.92332992    0.15146000    0.11290000
opls_146-671    H    0.70740038    0.90755006    0.10645999    0.11230000
opls_702-672    H    0.54902024    0.68421995    0.15243002    0.12470000
opls_702-673    H    0.69984972    0.71123002    0.18298997    0.13460000
opls_702-674    H    0.70043042    0.67089998    0.17328007    0.12010000
opls_702-675    H    0.88399988    0.75040006    0.24716993    0.11930000
opls_702-676    H    0.05545034    0.77346990    0.23999991    0.12590000
opls_702-677    H    0.92365000    0.74368996    0.20830997    0.12470000
opls_702-678    H    0.20946934    0.91435013    0.11839005    0.12490000
opls_702-679    H    0.04591972    0.92137987    0.09432991    0.11890000
opls_702-680    H    0.08014065    0.88247003    0.08832992    0.11900000
opls_702-681    H    0.70335002    0.82428001    0.03121998    0.11530000
opls_702-682    H    0.86437982    0.84450005    0.01845996    0.11900000
opls_702-683    H    0.85719976    0.85412989    0.05854993    0.12490000
opls_146-684    H    0.36763062    0.45412995    0.77878000    0.11290000
opls_146-685    H    0.85508995    0.45451008    0.72732000    0.10950000
opls_144-686    H    0.19600945    0.40255003    0.74236985    0.10800000
opls_144-687    H    0.00701957    0.41113994    0.68955993    0.11050000
opls_144-688    H    0.80715964    0.02860008    0.07984008    0.10720000
opls_144-689    H    0.09802005    0.92509991    0.00479985    0.10790000
opls_146-690    H    0.73072063    0.87227993    0.94300997    0.11050000
opls_146-691    H    0.25374032    0.87570991    0.99408984    0.11080000
opls_146-692    H    0.73045071    0.80206008    0.97642996    0.11290000
opls_146-693    H    0.50052964    0.71523997    0.96727985    0.11510000
opls_146-694    H    0.51149014    0.77367992    0.99499989    0.11090000
opls_146-695    H    0.22906022    0.79943007    0.90123000    0.11220000
opls_146-696    H    0.46061981    0.76904992    0.85783989    0.11140000
opls_146-697    H    0.62482017    0.65963994    0.79377985    0.11340000
opls_146-698    H    0.61717029    0.71789996    0.82052987    0.11160000
opls_146-699    H    0.48260939    0.61056011    0.91496003    0.11060000
opls_146-700    H    0.48260064    0.66886993    0.94295996    0.11250000
opls_146-701    H    0.61639990    0.55889000    0.87371993    0.10770000
opls_146-702    H    0.83665028    0.52871990    0.82836988    0.11200000
opls_146-703    H    0.59959000    0.61378992    0.76842998    0.11420000
opls_146-704    H    0.57246013    0.55559000    0.73808997    0.11280000
opls_146-705    H    0.34316063    0.52684993    0.75455989    0.11250000
opls_702-706    H    0.22915068    0.79561987    0.97916986    0.11710000
opls_702-707    H    0.38275968    0.79828006    0.95171999    0.12570000
opls_702-708    H    0.38342063    0.82917001    0.99144000    0.12010000
opls_702-709    H    0.56688066    0.82420004    0.91189996    0.11890000
opls_702-710    H    0.73598057    0.79375001    0.88923003    0.12570000
opls_702-711    H    0.60565972    0.79242006    0.91963996    0.13090000
opls_702-712    H    0.85806061    0.53462999    0.75025986    0.11890000
opls_702-713    H    0.69813969    0.50200999    0.73896993    0.11890000
opls_702-714    H    0.71187971    0.53261998    0.77885987    0.12340000
opls_702-715    H    0.34104061    0.53527997    0.83895997    0.12390000
opls_702-716    H    0.49820973    0.50187998    0.81965987    0.11900000
opls_702-717    H    0.49472985    0.53159008    0.80850004    0.12280000
opls_146-718    H    0.02402936    0.78724993    0.44475994    0.11280000
opls_146-719    H    0.51049944    0.78803007    0.39368007    0.10980000
opls_144-720    H    0.85342953    0.73576004    0.40785992    0.10800000
opls_144-721    H    0.66469936    0.74489006    0.35535003    0.10910000
opls_144-722    H    0.47822052    0.36174991    0.74552993    0.10810000
opls_144-723    H    0.76399025    0.25824992    0.66999983    0.10790000
opls_146-724    H    0.39306068    0.20572003    0.60866996    0.11050000
opls_146-725    H    0.91676029    0.20883996    0.65947989    0.11090000
opls_146-726    H    0.38937070    0.13564007    0.64249000    0.11240000
opls_146-727    H    0.15836993    0.04899993    0.63365983    0.11420000
opls_146-728    H    0.17034011    0.10743994    0.66125996    0.11090000
opls_146-729    H    0.88876957    0.13255992    0.56716988    0.11180000
opls_146-730    H    0.12080044    0.10200996    0.52391984    0.11160000
opls_146-731    H    0.28324992    0.99250003    0.46008992    0.11350000
opls_146-732    H    0.27687964    0.05074996    0.48674988    0.11140000
opls_146-733    H    0.13797949    0.94432007    0.58144998    0.11100000
opls_146-734    H    0.13907962    0.00263994    0.60935985    0.11300000
opls_146-735    H    0.27082014    0.89254991    0.54026984    0.10780000
opls_146-736    H    0.49128938    0.86218997    0.49498994    0.11180000
opls_146-737    H    0.25533070    0.94669008    0.43454998    0.11520000
opls_146-738    H    0.22648934    0.88851998    0.40424007    0.11290000
opls_146-739    H    0.99770051    0.85993010    0.42096002    0.11220000
opls_702-740    H    0.88850986    0.12894993    0.64507988    0.12470000
opls_702-741    H    0.04187957    0.13119994    0.61737998    0.12790000
opls_702-742    H    0.04440959    0.16228000    0.65701989    0.12010000
opls_702-743    H    0.22633030    0.15780997    0.57803987    0.12140000
opls_702-744    H    0.39440011    0.12726001    0.55519006    0.12500000
opls_702-745    H    0.26510060    0.12598997    0.58571991    0.13090000
opls_702-746    H    0.51322060    0.86777994    0.41651993    0.12140000
opls_702-747    H    0.35150065    0.83552986    0.40602985    0.11950000
opls_702-748    H    0.36936983    0.86647990    0.44572995    0.12950000
opls_702-749    H    0.99657995    0.86858009    0.50533996    0.12380000
opls_702-750    H    0.15218057    0.83491998    0.48631998    0.11900000
opls_702-751    H    0.15199965    0.86443010    0.47488998    0.12280000
opls_146-752    H    0.69686009    0.12143990    0.11318992    0.11300000
opls_146-753    H    0.18383063    0.12139992    0.06166000    0.10980000
opls_144-754    H    0.52574960    0.06975000    0.07690988    0.10860000
opls_144-755    H    0.33730977    0.07807003    0.02389993    0.10980000
opls_144-756    H    0.14303953    0.69658997    0.41504985    0.10680000
opls_144-757    H    0.42786962    0.59228995    0.33916995    0.10790000
opls_146-758    H    0.06339058    0.53970007    0.27662999    0.10910000
opls_146-759    H    0.58617973    0.54280005    0.32762999    0.11090000
opls_146-760    H    0.06395961    0.46955999    0.30973999    0.11280000
opls_146-761    H    0.83304055    0.38298992    0.30107003    0.11330000
opls_146-762    H    0.84536965    0.44142999    0.32864006    0.11090000
opls_146-763    H    0.56263040    0.46639005    0.23429995    0.11220000
opls_146-764    H    0.79441032    0.43579011    0.19101009    0.11090000
opls_146-765    H    0.95572027    0.32621997    0.12711002    0.11330000
opls_146-766    H    0.94964034    0.38448994    0.15375008    0.11140000
opls_146-767    H    0.81221968    0.27833989    0.24895995    0.11080000
opls_146-768    H    0.81329063    0.33665000    0.27678001    0.11240000
opls_146-769    H    0.94539008    0.22653000    0.20786987    0.10950000
opls_146-770    H    0.16543035    0.19611996    0.16254992    0.11290000
opls_146-771    H    0.92895954    0.28038008    0.10179997    0.11330000
opls_146-772    H    0.90072953    0.22219003    0.07165998    0.11290000
opls_146-773    H    0.67113968    0.19368009    0.08836998    0.11240000
opls_702-774    H    0.56316004    0.46268004    0.31220995    0.11230000
opls_702-775    H    0.71507945    0.46519000    0.28449986    0.12790000
opls_702-776    H    0.71816975    0.49610989    0.32420992    0.11950000
opls_702-777    H    0.90106950    0.49165006    0.24495001    0.11930000
opls_702-778    H    0.06942965    0.46097011    0.22250001    0.11990000
opls_702-779    H    0.93742942    0.45999010    0.25294999    0.13090000
opls_702-780    H    0.18592001    0.20096999    0.08358008    0.13570000
opls_702-781    H    0.02430950    0.16880004    0.07349005    0.11940000
opls_702-782    H    0.04241942    0.20006990    0.11302995    0.12340000
opls_702-783    H    0.67056043    0.20282002    0.17298999    0.12470000
opls_702-784    H    0.82712987    0.16932001    0.15392996    0.11940000
opls_702-785    H    0.82411982    0.19872000    0.14235989    0.12280000
opls_146-786    H    0.40925048    0.31759993    0.53751004    0.11300000
opls_146-787    H    0.89298043    0.26659005    0.53769988    0.11180000
opls_144-788    H    0.25896961    0.33082003    0.58740991    0.10780000
opls_144-789    H    0.99797044    0.27702997    0.58339001    0.10720000
opls_144-790    H    0.85161008    0.04645993    0.96699996    0.10900000
opls_144-791    H    0.06743949    0.07646994    0.07232996    0.10950000
opls_146-792    H    0.69196930    0.06616000    0.12399994    0.11140000
opls_146-793    H    0.20899952    0.11581003    0.12149989    0.11280000
opls_146-794    H    0.67280009    0.16916990    0.19497999    0.11280000
opls_146-795    H    0.47651050    0.24840993    0.28213987    0.11530000
opls_146-796    H    0.46326947    0.21687003    0.22409000    0.11140000
opls_146-797    H    0.16685002    0.09461001    0.19534993    0.11180000
opls_146-798    H    0.40506004    0.08022009    0.22419001    0.11080000
opls_146-799    H    0.61690036    0.12623987    0.33123988    0.11420000
opls_146-800    H    0.58268964    0.09381005    0.27369007    0.11140000
opls_146-801    H    0.50732013    0.30291001    0.38613986    0.11080000
opls_146-802    H    0.48162015    0.27172012    0.32834002    0.11350000
opls_146-803    H    0.66176956    0.31325995    0.43658008    0.10790000
opls_146-804    H    0.88797000    0.29667007    0.46534005    0.11290000
opls_146-805    H    0.61709004    0.14846998    0.37708999    0.11520000
opls_146-806    H    0.61288063    0.17708992    0.43517991    0.11240000
opls_146-807    H    0.38923939    0.22256984    0.46481985    0.11240000
opls_702-808    H    0.17868013    0.17952995    0.20087996    0.11530000
opls_702-809    H    0.33118024    0.14954987    0.19903994    0.12790000
opls_702-810    H    0.33683996    0.15873011    0.16805008    0.12010000
opls_702-811    H    0.52534981    0.08173004    0.17184010    0.12020000
opls_702-812    H    0.69047959    0.09146003    0.20328000    0.13570000
opls_702-813    H    0.55330989    0.12159992    0.20230003    0.11230000
opls_702-814    H    0.89510046    0.21027007    0.45798991    0.12950000
opls_702-815    H    0.73516057    0.23119993    0.49036002    0.11910000
opls_702-816    H    0.75020062    0.24106989    0.45984984    0.12140000
opls_702-817    H    0.38057983    0.29831013    0.45693007    0.12470000
opls_702-818    H    0.54041029    0.31119008    0.48974999    0.12000000
opls_702-819    H    0.53289026    0.27082005    0.45997995    0.12570000
opls_146-820    H    0.08224025    0.65215002    0.20389998    0.11330000
opls_146-821    H    0.57052979    0.59962996    0.20282995    0.11200000
opls_144-822    H    0.92669069    0.66511009    0.25344009    0.10900000
opls_144-823    H    0.67366970    0.61027010    0.24879998    0.10740000
opls_144-824    H    0.51807053    0.37998001    0.63280997    0.10790000
opls_144-825    H    0.73808016    0.40968993    0.73806982    0.10900000
opls_146-826    H    0.36594978    0.39899999    0.78998983    0.11200000
opls_146-827    H    0.88151072    0.44874995    0.78711983    0.11250000
opls_146-828    H    0.34892978    0.50159997    0.86084000    0.11230000
opls_146-829    H    0.15479960    0.58113997    0.94795983    0.11330000
opls_146-830    H    0.13986022    0.54936997    0.88993983    0.11140000
opls_146-831    H    0.84327006    0.42711985    0.86122986    0.11180000
opls_146-832    H    0.08211039    0.41278996    0.89003984    0.11090000
opls_146-833    H    0.29769030    0.45926000    0.99694988    0.11330000
opls_146-834    H    0.26148941    0.42656989    0.93944984    0.11090000
opls_146-835    H    0.18799043    0.63593999    0.05191006    0.11090000
opls_146-836    H    0.16059938    0.60453005    0.99415999    0.11330000
opls_146-837    H    0.34484001    0.64660001    0.10230003    0.10900000
opls_146-838    H    0.57305981    0.63028000    0.13101995    0.11280000
opls_146-839    H    0.29820973    0.48155993    0.04284005    0.11420000
opls_146-840    H    0.29518946    0.51037001    0.10092001    0.11300000
opls_146-841    H    0.07310066    0.55610993    0.13055995    0.11300000
opls_702-842    H    0.85448006    0.51220992    0.86659991    0.11890000
opls_702-843    H    0.00696996    0.48218994    0.86465988    0.12570000
opls_702-844    H    0.01197018    0.49139004    0.83367998    0.11900000
opls_702-845    H    0.20734056    0.41325004    0.83813002    0.12080000
opls_702-846    H    0.36931001    0.42563002    0.87047003    0.13350000
opls_702-847    H    0.22450939    0.45382993    0.86727985    0.13350000
opls_702-848    H    0.58144068    0.54348997    0.12245995    0.13570000
opls_702-849    H    0.42135051    0.56315004    0.15505995    0.11890000
opls_702-850    H    0.43120067    0.57421011    0.12537001    0.11990000
opls_702-851    H    0.06320965    0.63232998    0.12321999    0.11580000
opls_702-852    H    0.22032041    0.64537010    0.15636010    0.11900000
opls_702-853    H    0.21530998    0.60498995    0.12658010    0.12930000
opls_146-854    H    0.74765017    0.98420987    0.87209984    0.11280000
opls_146-855    H    0.23026978    0.93334990    0.87212994    0.11180000
opls_144-856    H    0.59513985    0.99770993    0.92195990    0.10910000
opls_144-857    H    0.33505989    0.94383001    0.91791985    0.10680000
opls_144-858    H    0.17822052    0.71411001    0.30194004    0.10780000
opls_144-859    H    0.40320994    0.74392007    0.40661001    0.10780000
opls_146-860    H    0.02881072    0.73490003    0.45911990    0.11140000
opls_146-861    H    0.54862045    0.78335995    0.45548986    0.11230000
opls_146-862    H    0.01779039    0.83812998    0.52967999    0.11280000
opls_146-863    H    0.82154019    0.91713004    0.61703989    0.11250000
opls_146-864    H    0.80845966    0.88581997    0.55894997    0.11160000
opls_146-865    H    0.50814013    0.76293004    0.52967999    0.11140000
opls_146-866    H    0.74412069    0.74801990    0.55838996    0.11160000
opls_146-867    H    0.95402046    0.79317002    0.66545997    0.11330000
opls_146-868    H    0.92026934    0.76106003    0.60785992    0.11090000
opls_146-869    H    0.85073026    0.97095990    0.72108989    0.11090000
opls_146-870    H    0.82691977    0.94028999    0.66324004    0.11260000
opls_146-871    H    0.00203977    0.98059006    0.77150001    0.10780000
opls_146-872    H    0.22634052    0.96351991    0.80008982    0.11230000
opls_146-873    H    0.95527963    0.81539987    0.71129989    0.11520000
opls_146-874    H    0.95052016    0.84370985    0.76937986    0.11280000
opls_146-875    H    0.72682055    0.88916009    0.79917005    0.11280000
opls_702-876    H    0.52425989    0.84750004    0.53492989    0.11530000
opls_702-877    H    0.67542058    0.81722992    0.53275001    0.12570000
opls_702-878    H    0.67955995    0.82641994    0.50176987    0.12020000
opls_702-879    H    0.86205991    0.75160004    0.50719989    0.12080000
opls_702-880    H    0.03128967    0.75956002    0.53767997    0.12770000
opls_702-881    H    0.89940032    0.79096001    0.53828004    0.11230000
opls_702-882    H    0.23334987    0.87674995    0.79318001    0.13350000
opls_702-883    H    0.07008039    0.89858985    0.82478985    0.11910000
opls_702-884    H    0.09237930    0.90718993    0.79347981    0.13570000
opls_702-885    H    0.72080044    0.96470998    0.79136985    0.11530000
opls_702-886    H    0.87930023    0.97783995    0.82437985    0.11940000
opls_702-887    H    0.87287013    0.93740997    0.79478992    0.14270000
