#======================================================================
# Crystal Data Generated By AuToFF
#----------------------------------------------------------------------

data_AuToFF_phase_1

_cell_length_a                         42.3100
_cell_length_b                         38.5000
_cell_length_c                         7.7700
_cell_angle_alpha                      81.94
_cell_angle_beta                       99.65
_cell_angle_gamma                      91.05
_symmetry_space_group_name_H-M_alt     'P 1'
_symmetry_space_group_IT_number        1

loop_
_space_group_symop_operation_xyz
   'x, y, z'

loop_
   _atom_site_label
   _atom_site_type_symbol
   _atom_site_fract_x
   _atom_site_fract_y
   _atom_site_fract_z
   _atom_site_charge
opls_145-0    C    0.25877016    0.47437011    0.94364021    -0.09660000
opls_700-1    C    0.28784016    0.45594999    0.97841027    0.02870000
opls_700-2    C    0.28870998    0.41927989    0.97736090    0.02990000
opls_700-3    C    0.25945997    0.39720006    0.97068110    0.06390000
opls_145-4    C    0.23967005    0.39731003    0.09872982    -0.12730000
opls_145-5    C    0.21253999    0.37602005    0.09548022    -0.17230000
opls_145-6    C    0.20516996    0.35354001    0.96765034    0.18880000
opls_145-7    C    0.22513002    0.35310010    0.84007092    -0.17670000
opls_145-8    C    0.25210005    0.37471007    0.84214065    -0.13060000
opls_700-9    C    0.83911015    0.03546005    0.87947084    0.02810000
opls_700-10    C    0.83679011    0.07235017    0.85482002    0.03110000
opls_145-11    C    0.86631997    0.01869012    0.84895097    -0.09650000
opls_700-12    C    0.86530011    0.09456004    0.84178998    0.06920000
opls_145-13    C    0.87540004    0.10533013    0.67995992    -0.12910000
opls_145-14    C    0.90299000    0.12587007    0.67394058    -0.17400000
opls_145-15    C    0.92031001    0.13627997    0.82858066    0.18840000
opls_145-16    C    0.91017007    0.12487012    0.99067042    -0.17170000
opls_145-17    C    0.88284016    0.10433000    0.99663044    -0.11690000
opls_700-18    C    0.99148011    0.19551992    0.92357047    0.06080000
opls_145-19    C    0.00851996    0.19325001    0.78510985    -0.12940000
opls_145-20    C    0.03773011    0.21069013    0.78050108    -0.13200000
opls_700-21    C    0.05053012    0.23041993    0.91482094    0.06390000
opls_145-22    C    0.03332991    0.23274006    0.05249059    -0.12390000
opls_145-23    C    0.00411008    0.21547005    0.05666959    -0.11970000
opls_700-24    C    0.08150018    0.24902000    0.91082123    0.00120000
opls_716-25    C    0.10853995    0.23271007    0.87366111    0.10810000
opls_716-26    C    0.13720010    0.25020013    0.87056047    0.12030000
opls_700-27    C    0.14072005    0.28495004    0.90604109    0.00170000
opls_145-28    C    0.11384996    0.30169998    0.94386037    -0.13570000
opls_145-29    C    0.08462011    0.28394995    0.94617002    -0.13570000
opls_142-30    C    0.96097012    0.17688011    0.93485113    0.07030000
opls_142-31    C    0.17167014    0.30333011    0.90340054    0.06870000
opls_700-32    C    0.81396997    0.01485005    0.93640013    -0.05130000
opls_145-33    C    0.80860996    0.08887009    0.87063034    -0.18000000
opls_145-34    C    0.37470997    0.47596996    0.07196050    -0.09390000
opls_700-35    C    0.34661009    0.45703986    0.02947973    0.02290000
opls_700-36    C    0.34732001    0.42064991    0.01347958    0.03090000
opls_145-37    C    0.31816012    0.40258989    0.98827112    -0.17000000
opls_700-38    C    0.37744995    0.40032006    0.01876990    0.06730000
opls_145-39    C    0.40174001    0.41398003    0.92612006    -0.11900000
opls_145-40    C    0.42905002    0.39413999    0.92570084    -0.16540000
opls_145-41    C    0.43244005    0.35977984    0.01338993    0.19040000
opls_145-42    C    0.40793991    0.34563997    0.10395950    -0.17230000
opls_145-43    C    0.38092010    0.36571005    0.10641021    -0.12730000
opls_700-44    C    0.78430006    0.03185012    0.96616066    0.02800000
opls_700-45    C    0.78120012    0.06885012    0.92873028    0.02210000
opls_145-46    C    0.76125994    0.01046987    0.03723000    -0.09390000
opls_700-47    C    0.75267012    0.08940998    0.94893053    0.06730000
opls_145-48    C    0.72111016    0.07865014    0.89332085    -0.11900000
opls_145-49    C    0.69495012    0.09932017    0.90455010    -0.16940000
opls_145-50    C    0.69965002    0.13169991    0.96643091    0.19780000
opls_145-51    C    0.73102987    0.14257010    0.02452953    -0.17230000
opls_145-52    C    0.75716007    0.12176006    0.01451048    -0.13100000
opls_700-53    C    0.64156018    0.20381011    0.98747092    -0.00080000
opls_716-54    C    0.61160001    0.18708000    0.96938126    0.10820000
opls_716-55    C    0.58406001    0.20446992    0.98156099    0.11500000
opls_700-56    C    0.58472990    0.23958997    0.01222983    -0.00110000
opls_145-57    C    0.61437995    0.25707995    0.02315060    -0.13300000
opls_145-58    C    0.64250002    0.23929988    0.01248954    -0.13290000
opls_700-59    C    0.55520998    0.25789986    0.03135040    0.06390000
opls_145-60    C    0.53350999    0.24088987    0.13319008    -0.11970000
opls_145-61    C    0.50551995    0.25779995    0.14979006    -0.11960000
opls_700-62    C    0.49861010    0.29208000    0.06535057    0.06070000
opls_145-63    C    0.52047996    0.30944014    0.96566103    -0.13010000
opls_145-64    C    0.54859017    0.29250991    0.94945126    -0.13060000
opls_142-65    C    0.67165015    0.18572014    0.98013064    0.06910000
opls_142-66    C    0.46865995    0.30903007    0.08486003    0.06890000
opls_700-67    C    0.81782017    0.97589990    0.97730026    -0.05130000
opls_145-68    C    0.37385011    0.51390987    0.07316015    -0.09380000
opls_700-69    C    0.34472002    0.53222005    0.04663999    0.03040000
opls_700-70    C    0.34385996    0.56880991    0.04841046    0.03340000
opls_145-71    C    0.31444997    0.58599997    0.02505949    -0.16820000
opls_700-72    C    0.37313999    0.59064993    0.06728978    0.06350000
opls_145-73    C    0.39597994    0.58577989    0.22175979    -0.12110000
opls_145-74    C    0.42442001    0.60500984    0.23333971    -0.17080000
opls_145-75    C    0.42951999    0.63071005    0.09457983    0.19540000
opls_145-76    C    0.40589004    0.63696011    0.94342006    -0.16940000
opls_145-77    C    0.37796012    0.61692005    0.92961090    -0.12590000
opls_700-78    C    0.79063000    0.95466986    0.03251973    0.02970000
opls_700-79    C    0.79257000    0.91776979    0.05174048    0.03320000
opls_145-80    C    0.76332996    0.97209981    0.05806962    -0.13240000
opls_700-81    C    0.76461995    0.89477985    0.07463005    0.06120000
opls_145-82    C    0.74956003    0.89354983    0.22320992    -0.12730000
opls_145-83    C    0.72197993    0.87337997    0.23536065    -0.17140000
opls_145-84    C    0.71010011    0.85280986    0.10403992    0.18740000
opls_145-85    C    0.72598010    0.85283002    0.95913019    -0.16810000
opls_145-86    C    0.75292008    0.87380001    0.94424004    -0.12390000
opls_700-87    C    0.64519997    0.78486986    0.07606040    0.05230000
opls_145-88    C    0.61648000    0.80418005    0.03762944    -0.12440000
opls_145-89    C    0.58705006    0.78697991    0.03403972    -0.13240000
opls_700-90    C    0.58574995    0.75019987    0.07348050    0.06880000
opls_145-91    C    0.61475010    0.73114004    0.11700009    -0.13100000
opls_145-92    C    0.64410995    0.74826994    0.11455069    -0.11780000
opls_700-93    C    0.55425999    0.73207988    0.07078063    0.00230000
opls_145-94    C    0.52864993    0.74782992    0.12760050    -0.12930000
opls_145-95    C    0.49859009    0.73158995    0.12067945    -0.13240000
opls_700-96    C    0.49367002    0.69871983    0.06282999    0.00840000
opls_716-97    C    0.51920993    0.68304980    0.00768039    0.11930000
opls_716-98    C    0.54848995    0.69942989    0.00923994    0.12140000
opls_142-99    C    0.67630999    0.80237003    0.07099947    0.06910000
opls_142-100    C    0.46196994    0.68218985    0.05533020    0.06930000
opls_145-101    C    0.25803013    0.51262008    0.93380045    -0.09370000
opls_700-102    C    0.28579010    0.53183991    0.98066060    0.01830000
opls_700-103    C    0.28495005    0.56872993    0.98906078    0.02090000
opls_700-104    C    0.25474997    0.59046995    0.97080106    0.06160000
opls_145-105    C    0.22651992    0.57669007    0.02795974    -0.13010000
opls_145-106    C    0.19967007    0.59789989    0.01774031    -0.16900000
opls_145-107    C    0.20118012    0.63404987    0.96936017    0.19590000
opls_145-108    C    0.22926999    0.64855992    0.91744040    -0.17140000
opls_145-109    C    0.25513006    0.62694002    0.91206043    -0.13280000
opls_700-110    C    0.84617994    0.95938983    0.95419053    0.02470000
opls_700-111    C    0.84969007    0.92224998    0.99517108    0.03650000
opls_145-112    C    0.86890012    0.98036996    0.87646117    -0.09640000
opls_700-113    C    0.87893003    0.90376985    0.00211982    0.07830000
opls_145-114    C    0.90921993    0.91819977    0.05932991    -0.13300000
opls_145-115    C    0.93758995    0.89980995    0.06342981    -0.17300000
opls_145-116    C    0.93659989    0.86588984    0.01863939    0.19770000
opls_145-117    C    0.90673000    0.85077991    0.96605124    -0.17200000
opls_145-118    C    0.87841993    0.86934989    0.95855014    -0.13200000
opls_700-119    C    0.99962992    0.79620989    0.04978017    -0.00390000
opls_145-120    C    0.02466011    0.81417005    0.97783022    -0.13190000
opls_145-121    C    0.05260998    0.79628000    0.96507043    -0.13000000
opls_700-122    C    0.05670007    0.76012993    0.02826954    0.01220000
opls_716-123    C    0.03165006    0.74299978    0.10523034    0.12280000
opls_716-124    C    0.00397007    0.76049983    0.11377026    0.12250000
opls_700-125    C    0.08670998    0.74148978    0.01511031    0.06740000
opls_145-126    C    0.11628990    0.75917985    0.02647006    -0.13010000
opls_145-127    C    0.14440992    0.74183985    0.01487038    -0.11790000
opls_700-128    C    0.14369000    0.70641004    0.99188062    0.05230000
opls_145-129    C    0.11429010    0.68869005    0.97780121    -0.11970000
opls_145-130    C    0.08612015    0.70611007    0.98742082    -0.12590000
opls_142-131    C    0.96917001    0.81373999    0.05471983    0.06910000
opls_142-132    C    0.17369997    0.68830991    0.98425032    0.06910000
opls_145-133    C    0.82107010    0.90175979    0.03625050    -0.05580000
opls_700-134    C    0.31675997    0.47479995    0.00667058    -0.02770000
opls_700-135    C    0.31568997    0.51366987    0.01412950    -0.03170000
opls_145-136    C    0.22639013    0.67496999    0.50905076    -0.09380000
opls_700-137    C    0.19688007    0.69214982    0.48878064    0.02810000
opls_700-138    C    0.19525011    0.72818984    0.50326081    0.03470000
opls_145-139    C    0.16569997    0.74347982    0.50652095    -0.17160000
opls_700-140    C    0.22380012    0.75103994    0.50356006    0.06560000
opls_145-141    C    0.24040999    0.75393983    0.36046958    -0.12110000
opls_145-142    C    0.26786003    0.77449985    0.36019010    -0.16370000
opls_145-143    C    0.27878004    0.79318990    0.50019972    0.18900000
opls_145-144    C    0.26196994    0.79069007    0.64344049    -0.18110000
opls_145-145    C    0.23451011    0.76982005    0.64436066    -0.13200000
opls_700-146    C    0.64027012    0.11536996    0.43005978    0.03370000
opls_700-147    C    0.64021993    0.07846991    0.43131085    0.02790000
opls_145-148    C    0.61174012    0.13429005    0.41847987    -0.09390000
opls_700-149    C    0.61236005    0.05753992    0.42127993    0.09320000
opls_145-150    C    0.58543992    0.06566006    0.28904035    -0.13200000
opls_145-151    C    0.55807009    0.04466005    0.28424043    -0.17170000
opls_145-152    C    0.55730995    0.01464011    0.40797965    0.18910000
opls_145-153    C    0.58447995    0.00579003    0.53713047    -0.17020000
opls_145-154    C    0.61181006    0.02664000    0.54155071    -0.13060000
opls_700-155    C    0.49500999    0.94457984    0.47517978    0.00070000
opls_716-156    C    0.46547015    0.96239978    0.42204059    0.12420000
opls_716-157    C    0.43690995    0.94547989    0.43796033    0.11930000
opls_700-158    C    0.43612001    0.90979998    0.50590003    -0.00400000
opls_145-159    C    0.46536008    0.89139985    0.55588059    -0.13300000
opls_145-160    C    0.49449995    0.90866987    0.54167990    -0.13300000
opls_700-161    C    0.40556013    0.89169002    0.52500082    0.07200000
opls_145-162    C    0.38408013    0.90479006    0.61998009    -0.12700000
opls_145-163    C    0.35532001    0.88736997    0.63915075    -0.12600000
opls_700-164    C    0.34744008    0.85685003    0.56189993    0.06850000
opls_145-165    C    0.36901003    0.84377987    0.46677037    -0.12940000
opls_145-166    C    0.39793006    0.86092998    0.44976963    -0.11950000
opls_142-167    C    0.52627008    0.96209995    0.47013071    0.06850000
opls_142-168    C    0.31677999    0.83901994    0.58111014    0.07000000
opls_145-169    C    0.67108013    0.05989999    0.45097060    -0.05800000
opls_700-170    C    0.66985005    0.13328995    0.45493076    -0.06130000
opls_145-171    C    0.11056994    0.67011988    0.39767057    -0.09370000
opls_700-172    C    0.13828002    0.68920004    0.44783041    0.01960000
opls_700-173    C    0.13687011    0.72470982    0.47981096    0.03600000
opls_700-174    C    0.10627014    0.74340999    0.48597004    0.06720000
opls_145-175    C    0.08193011    0.72670003    0.56972006    -0.12910000
opls_145-176    C    0.05371994    0.74451996    0.57592001    -0.16540000
opls_145-177    C    0.04972993    0.77990991    0.50588026    0.18820000
opls_145-178    C    0.07405003    0.79707994    0.42442011    -0.16900000
opls_145-179    C    0.10190004    0.77905992    0.41475964    -0.12940000
opls_700-180    C    0.70081994    0.11368000    0.47755008    0.03170000
opls_700-181    C    0.70077005    0.07685007    0.47107988    0.02490000
opls_145-182    C    0.72889006    0.13224001    0.52470025    -0.11710000
opls_700-183    C    0.72881005    0.05602012    0.48185036    0.07450000
opls_145-184    C    0.75514003    0.06870997    0.40280006    -0.12310000
opls_145-185    C    0.78146005    0.04727006    0.40444002    -0.16330000
opls_145-186    C    0.78196002    0.01217992    0.48071003    0.19620000
opls_145-187    C    0.75628015    0.99920998    0.56374027    -0.17300000
opls_145-188    C    0.73017002    0.02073997    0.56381014    -0.13190000
opls_700-189    C    0.83979001    0.93795989    0.49274080    0.05220000
opls_145-190    C    0.86698013    0.95608986    0.44822063    -0.12110000
opls_145-191    C    0.89542013    0.93801980    0.45280039    -0.12160000
opls_700-192    C    0.89743009    0.90143001    0.50270976    0.06810000
opls_145-193    C    0.86956014    0.88320005    0.53717001    -0.12940000
opls_145-194    C    0.84106997    0.90132983    0.53307011    -0.11970000
opls_700-195    C    0.92842004    0.88242980    0.51844098    0.00230000
opls_716-196    C    0.95799995    0.89711999    0.58450079    0.10200000
opls_716-197    C    0.98675014    0.88030988    0.58695019    0.10260000
opls_700-198    C    0.98758013    0.84749980    0.52878038    0.00040000
opls_145-199    C    0.95821013    0.83158998    0.47152019    -0.13300000
opls_145-200    C    0.92903996    0.84892988    0.46506054    -0.12930000
opls_142-201    C    0.81035003    0.95677993    0.50294969    0.06920000
opls_142-202    C    0.01855998    0.83067995    0.52552023    0.06910000
opls_145-203    C    0.11220005    0.63295983    0.37808992    -0.09660000
opls_700-204    C    0.14171993    0.61565009    0.40049963    0.02810000
opls_700-205    C    0.14321010    0.57960985    0.38888017    0.03100000
opls_700-206    C    0.11459995    0.55699003    0.38578086    0.06890000
opls_145-207    C    0.09521002    0.55169991    0.22691038    -0.12830000
opls_145-208    C    0.06847991    0.52968992    0.22862021    -0.17400000
opls_145-209    C    0.06106001    0.51246009    0.38830012    0.18710000
opls_145-210    C    0.08050002    0.51831010    0.54745009    -0.16980000
opls_145-211    C    0.10706995    0.54026992    0.54560052    -0.12050000
opls_700-212    C    0.70010012    0.18945999    0.50538985    0.02120000
opls_700-213    C    0.70043995    0.22643997    0.50796053    0.02260000
opls_145-214    C    0.72860009    0.17030001    0.52007040    -0.09390000
opls_700-215    C    0.72890994    0.24651999    0.52908095    0.09050000
opls_145-216    C    0.75459012    0.23718995    0.66807021    -0.13190000
opls_145-217    C    0.78249004    0.25744995    0.68421011    -0.16870000
opls_145-218    C    0.78493008    0.28807000    0.56640059    0.19050000
opls_145-219    C    0.75901999    0.29804989    0.43070048    -0.17150000
opls_145-220    C    0.73130996    0.27777997    0.41367073    -0.13200000
opls_700-221    C    0.84828999    0.35810011    0.53040056    0.00130000
opls_145-222    C    0.87719000    0.33875998    0.56949068    -0.13010000
opls_145-223    C    0.90671009    0.35573992    0.56131065    -0.12940000
opls_700-224    C    0.90796999    0.39234008    0.51233068    0.00070000
opls_716-225    C    0.87900014    0.41122001    0.47681051    0.11980000
opls_716-226    C    0.85010008    0.39462009    0.48639980    0.12050000
opls_700-227    C    0.93915001    0.41022994    0.50543995    0.06120000
opls_145-228    C    0.96432006    0.40367001    0.64850011    -0.11950000
opls_145-229    C    0.99320996    0.42175005    0.64766035    -0.11970000
opls_700-230    C    0.99774007    0.44636987    0.50279017    0.06650000
opls_145-231    C    0.97294994    0.45217988    0.35663070    -0.13150000
opls_145-232    C    0.94384005    0.43431997    0.35832075    -0.13170000
opls_142-233    C    0.81676993    0.34070998    0.52717997    0.06970000
opls_142-234    C    0.02811001    0.46611994    0.51085023    0.06910000
opls_145-235    C    0.22809992    0.63709993    0.50666992    -0.09370000
opls_700-236    C    0.20060999    0.61741986    0.46050056    0.01640000
opls_700-237    C    0.20205007    0.58097996    0.44257964    0.02080000
opls_145-238    C    0.17284005    0.56331997    0.40295035    -0.17000000
opls_700-239    C    0.23258995    0.55981005    0.46211020    0.06200000
opls_145-240    C    0.26080015    0.57391990    0.40600088    -0.13170000
opls_145-241    C    0.28832996    0.55329986    0.42363968    -0.16950000
opls_145-242    C    0.28775010    0.51735984    0.48186091    0.19630000
opls_145-243    C    0.25951997    0.50253995    0.53115067    -0.17070000
opls_145-244    C    0.23275001    0.52358987    0.52543982    -0.13250000
opls_700-245    C    0.63960004    0.19085998    0.45700048    0.02880000
opls_700-246    C    0.63978003    0.22723994    0.47019003    0.03110000
opls_145-247    C    0.61143003    0.17236001    0.41197013    -0.11530000
opls_700-248    C    0.61212010    0.24745000    0.47647039    0.07700000
opls_145-249    C    0.58651998    0.23302002    0.55786067    -0.12690000
opls_145-250    C    0.55976013    0.25319992    0.56432032    -0.16350000
opls_145-251    C    0.55781998    0.28855000    0.49252065    0.18820000
opls_145-252    C    0.58371001    0.30384006    0.41817007    -0.17080000
opls_145-253    C    0.61031996    0.28360990    0.41010078    -0.13210000
opls_700-254    C    0.49139011    0.35588009    0.43208996    0.05820000
opls_145-255    C    0.47000998    0.33927992    0.53718056    -0.12810000
opls_145-256    C    0.44206999    0.35648997    0.55337055    -0.12900000
opls_700-257    C    0.43501996    0.39061003    0.46527015    0.06430000
opls_145-258    C    0.45612001    0.40671987    0.35689040    -0.12390000
opls_145-259    C    0.48405000    0.38956997    0.34108008    -0.11790000
opls_700-260    C    0.40543000    0.40910010    0.48264002    0.00130000
opls_145-261    C    0.37623005    0.39099004    0.48461087    -0.13300000
opls_145-262    C    0.34794004    0.40883007    0.49107052    -0.13190000
opls_700-263    C    0.34824995    0.44502997    0.50046997    0.00040000
opls_716-264    C    0.37784995    0.46244999    0.50825978    0.10770000
opls_716-265    C    0.40555001    0.44498991    0.49883001    0.10810000
opls_142-266    C    0.52115012    0.33854996    0.41289030    0.06890000
opls_142-267    C    0.31774994    0.46304987    0.50077054    0.07000000
opls_700-268    C    0.67054011    0.17156997    0.47602086    -0.06120000
opls_145-269    C    0.67136005    0.24477014    0.48586984    -0.05580000
opls_700-270    C    0.16844012    0.67269984    0.45925081    -0.02200000
opls_700-271    C    0.17033997    0.63463004    0.43661040    -0.02860000
opls_750-272    N    0.94876004    0.15699008    0.81876067    -0.34340000
opls_750-273    N    0.17658013    0.33285000    0.96676049    -0.35090000
opls_750-274    N    0.67199014    0.15232012    0.97077074    -0.35590000
opls_750-275    N    0.46084003    0.34043997    0.00548016    -0.34350000
opls_750-276    N    0.68096011    0.83362002    0.11476953    -0.35590000
opls_750-277    N    0.45951006    0.64878990    0.10480980    -0.35580000
opls_750-278    N    0.96612009    0.84765983    0.02346962    -0.35560000
opls_750-279    N    0.17371999    0.65490987    0.97460039    -0.35590000
opls_750-280    N    0.52814012    0.99490986    0.40534965    -0.35570000
opls_750-281    N    0.30766015    0.81312001    0.49440054    -0.35590000
opls_750-282    N    0.80887002    0.99080994    0.47105088    -0.35560000
opls_750-283    N    0.02046993    0.79745989    0.51407083    -0.35550000
opls_750-284    N    0.96076013    0.92645998    0.64809012    -0.37330000
opls_750-285    N    0.01205007    0.89671985    0.64950992    -0.37330000
opls_750-286    N    0.81449001    0.30734008    0.58080034    -0.34340000
opls_750-287    N    0.03304004    0.49059992    0.38488969    -0.34500000
opls_750-288    N    0.52949995    0.30791996    0.50046997    -0.34360000
opls_750-289    N    0.31618000    0.49699988    0.48835088    -0.34360000
opls_750-290    N    0.87637995    0.44829002    0.43550962    -0.37440000
opls_750-291    N    0.82337010    0.41782994    0.45142013    -0.37480000
opls_750-292    N    0.10982012    0.19722999    0.84376083    -0.37480000
opls_750-293    N    0.16216994    0.22947006    0.83548062    -0.37470000
opls_750-294    N    0.46166012    0.99832978    0.34914014    -0.37480000
opls_750-295    N    0.40939012    0.96712991    0.37687050    -0.37490000
opls_750-296    N    0.38289995    0.49790002    0.53674025    -0.37480000
opls_750-297    N    0.43357010    0.46587002    0.52104066    -0.37540000
opls_750-298    N    0.60603012    0.15271004    0.92454074    -0.37470000
opls_750-299    N    0.55565999    0.18468003    0.94525117    -0.37490000
opls_750-300    N    0.03230008    0.70750995    0.18599970    -0.32600000
opls_750-301    N    0.98154001    0.73945983    0.19810034    -0.37470000
opls_750-302    N    0.51709002    0.65113990    0.93458088    -0.37500000
opls_750-303    N    0.57056010    0.68119995    0.93462043    -0.37480000
opls_146-304    H    0.23613005    0.46141007    0.90969013    0.11890000
opls_146-305    H    0.24521992    0.41399983    0.20095049    0.11360000
opls_146-306    H    0.19733013    0.37673006    0.19403076    0.11600000
opls_146-307    H    0.21959993    0.33675006    0.73665061    0.11910000
opls_146-308    H    0.26711001    0.37416008    0.74253021    0.11480000
opls_146-309    H    0.88587995    0.03335014    0.80095049    0.12080000
opls_146-310    H    0.86213007    0.09758012    0.55970101    0.11150000
opls_146-311    H    0.91077005    0.13386990    0.54857987    0.11620000
opls_146-312    H    0.92360014    0.13094002    0.11370039    0.11560000
opls_146-313    H    0.87546004    0.09572004    0.12269117    0.11290000
opls_146-314    H    0.99933009    0.17805995    0.68058084    0.11640000
opls_146-315    H    0.05016003    0.20899997    0.67098101    0.11630000
opls_144-316    H    0.94893010    0.18016994    0.04397044    0.09630000
opls_144-317    H    0.19058992    0.29126008    0.85394994    0.09380000
opls_146-318    H    0.80749003    0.11570992    0.84765113    0.24280000
opls_146-319    H    0.39787011    0.46333982    0.10967036    0.11500000
opls_146-320    H    0.39961998    0.44005997    0.85326048    0.11770000
opls_146-321    H    0.44758999    0.40551995    0.85521024    0.11580000
opls_146-322    H    0.40908993    0.31926007    0.17294988    0.11450000
opls_146-323    H    0.36264009    0.35396007    0.17773003    0.11840000
opls_146-324    H    0.74124006    0.02130003    0.08178972    0.11020000
opls_146-325    H    0.71642016    0.05468007    0.83678046    0.09830000
opls_146-326    H    0.67089011    0.09064012    0.85884082    0.11270000
opls_146-327    H    0.73560010    0.16658008    0.08158011    0.11540000
opls_146-328    H    0.78096995    0.13061999    0.06349045    0.11590000
opls_146-329    H    0.61597000    0.28436006    0.04281957    0.12080000
opls_146-330    H    0.66503013    0.25329990    0.02479056    0.11410000
opls_146-331    H    0.51587993    0.33600005    0.89988992    0.11660000
opls_146-332    H    0.56487999    0.30625004    0.87027045    0.11590000
opls_144-333    H    0.69339008    0.20100016    0.98177060    0.08740000
opls_144-334    H    0.45361991    0.29454001    0.16873002    0.11990000
opls_146-335    H    0.39670005    0.52691993    0.09502014    0.12030000
opls_146-336    H    0.39193003    0.56658984    0.33117968    0.11850000
opls_146-337    H    0.44236011    0.60014989    0.35101080    0.11630000
opls_146-338    H    0.40958014    0.65647988    0.83411091    0.11620000
opls_146-339    H    0.36028004    0.62152001    0.81053055    0.11350000
opls_146-340    H    0.74391000    0.95864996    0.09384026    0.24280000
opls_146-341    H    0.75861006    0.90894981    0.32695981    0.11570000
opls_146-342    H    0.70991996    0.87361994    0.34751073    0.11580000
opls_146-343    H    0.71692998    0.83755995    0.85476992    0.11880000
opls_146-344    H    0.76433010    0.87422996    0.82907106    0.11290000
opls_146-345    H    0.61674005    0.83247979    0.00541951    0.11350000
opls_146-346    H    0.56526997    0.80251998    0.99764025    0.11440000
opls_144-347    H    0.69572006    0.78821984    0.03632960    0.10520000
opls_144-348    H    0.44069993    0.69857980    0.01689001    0.10670000
opls_146-349    H    0.23542016    0.52515997    0.87728115    0.10680000
opls_146-350    H    0.22535013    0.55002998    0.09155038    0.12210000
opls_146-351    H    0.17806991    0.58638998    0.05770050    0.11990000
opls_146-352    H    0.23108994    0.67636987    0.87480011    0.11720000
opls_146-353    H    0.27541015    0.63925007    0.86054011    0.11720000
opls_146-354    H    0.88840000    0.96917996    0.82844092    0.11920000
opls_146-355    H    0.91126004    0.94345991    0.10569965    0.11970000
opls_146-356    H    0.96044007    0.91167990    0.10622038    0.11480000
opls_146-357    H    0.90510011    0.82499983    0.92508124    0.12080000
opls_146-358    H    0.85625003    0.85706000    0.90837052    0.11970000
opls_146-359    H    0.02246007    0.84186006    0.92844026    0.11690000
opls_146-360    H    0.07075008    0.81085999    0.90292068    0.12080000
opls_146-361    H    0.11292015    0.66138990    0.95773016    0.11170000
opls_146-362    H    0.06383000    0.69191990    0.96780062    0.11460000
opls_144-363    H    0.94929007    0.79763980    0.08899948    0.09430000
opls_144-364    H    0.19580009    0.70306005    0.99466090    0.10410000
opls_146-365    H    0.82226000    0.87342002    0.06315956    0.11880000
opls_146-366    H    0.24879009    0.68841008    0.54227973    0.11910000
opls_146-367    H    0.23228005    0.73985985    0.25000033    0.11160000
opls_146-368    H    0.28070012    0.77594994    0.25007020    0.11620000
opls_146-369    H    0.27032005    0.80394987    0.75620093    0.11730000
opls_146-370    H    0.22199013    0.76775984    0.75608097    0.11280000
opls_146-371    H    0.58874011    0.12173012    0.41719058    0.11450000
opls_146-372    H    0.58571004    0.08800992    0.18811029    0.11970000
opls_146-373    H    0.53738997    0.05172994    0.18346066    0.11660000
opls_146-374    H    0.58444994    0.98346011    0.63840987    0.11970000
opls_146-375    H    0.63213997    0.01939996    0.64475088    0.11550000
opls_146-376    H    0.36362995    0.82027983    0.40577018    0.11630000
opls_146-377    H    0.41421003    0.85040982    0.37610061    0.11150000
opls_144-378    H    0.54783994    0.94685992    0.52326990    0.10510000
opls_144-379    H    0.30160005    0.84866995    0.66335994    0.09880000
opls_146-380    H    0.66997009    0.03244993    0.43302068    0.11380000
opls_146-381    H    0.08723993    0.68227997    0.36444028    0.10680000
opls_146-382    H    0.08461007    0.69973000    0.63120011    0.11850000
opls_146-383    H    0.03518004    0.73089994    0.63908088    0.11600000
opls_146-384    H    0.07124990    0.82417006    0.36396965    0.11590000
opls_146-385    H    0.11987005    0.79314002    0.34929043    0.11540000
opls_146-386    H    0.75173993    0.11935003    0.57171991    0.11270000
opls_146-387    H    0.75502997    0.09485997    0.33319008    0.09570000
opls_146-388    H    0.80109009    0.05774003    0.34000962    0.11150000
opls_146-389    H    0.75618004    0.97269996    0.63104060    0.11850000
opls_146-390    H    0.71133992    0.00971993    0.63318019    0.11480000
opls_146-391    H    0.86650007    0.98431996    0.41268992    0.11480000
opls_146-392    H    0.91581003    0.95284004    0.41624009    0.11860000
opls_146-393    H    0.87003011    0.85502987    0.57458985    0.11620000
opls_146-394    H    0.82022007    0.88678993    0.56596028    0.11720000
opls_146-395    H    0.95776009    0.80615001    0.42701057    0.11580000
opls_146-396    H    0.90704009    0.83647001    0.41311045    0.11580000
opls_144-397    H    0.79016013    0.94151994    0.53839076    0.11470000
opls_144-398    H    0.04009009    0.84639986    0.53943089    0.10520000
opls_146-399    H    0.08978998    0.61957983    0.34406998    0.11840000
opls_146-400    H    0.10074999    0.56458981    0.10251069    0.11480000
opls_146-401    H    0.05359995    0.52581997    0.10523957    0.11630000
opls_146-402    H    0.07507993    0.50660998    0.67384039    0.11970000
opls_146-403    H    0.12177005    0.54442003    0.66922108    0.11720000
opls_146-404    H    0.75174998    0.18261995    0.52770992    0.12610000
opls_146-405    H    0.75295997    0.21444002    0.76549097    0.11720000
opls_146-406    H    0.80222994    0.24939009    0.78951032    0.11440000
opls_146-407    H    0.76037010    0.32094005    0.33421044    0.11860000
opls_146-408    H    0.71211005    0.28588005    0.30506028    0.11420000
opls_146-409    H    0.87702013    0.31052993    0.60440047    0.11480000
opls_146-410    H    0.92854012    0.34023991    0.59098022    0.11480000
opls_146-411    H    0.97594001    0.47066992    0.24199959    0.11480000
opls_146-412    H    0.92500012    0.43924988    0.24471001    0.11410000
opls_144-413    H    0.79538011    0.35638995    0.47671032    0.09880000
opls_144-414    H    0.04627015    0.45974987    0.62639097    0.12010000
opls_146-415    H    0.25127994    0.62523006    0.55417999    0.09450000
opls_146-416    H    0.26147993    0.60044001    0.33949021    0.11870000
opls_146-417    H    0.30990004    0.56509987    0.38447970    0.11590000
opls_146-418    H    0.25806004    0.47496999    0.57975097    0.11860000
opls_146-419    H    0.21225004    0.51112002    0.57408098    0.11690000
opls_146-420    H    0.58849010    0.18526995    0.36893963    0.11330000
opls_146-421    H    0.58733012    0.20627991    0.62207091    0.11450000
opls_146-422    H    0.54036012    0.24117012    0.62592034    0.11600000
opls_146-423    H    0.58387004    0.33136988    0.36659043    0.12030000
opls_146-424    H    0.62889000    0.29649005    0.34497960    0.11540000
opls_146-425    H    0.47481996    0.31302993    0.60677077    0.11440000
opls_146-426    H    0.42620001    0.34324004    0.63668027    0.11890000
opls_146-427    H    0.45073004    0.43233991    0.28120044    0.11580000
opls_146-428    H    0.49980999    0.40256003    0.25615018    0.11600000
opls_144-429    H    0.53534007    0.35166990    0.32005985    0.11950000
opls_144-430    H    0.29636011    0.44726001    0.50089051    0.12150000
opls_146-431    H    0.67250994    0.27233003    0.50034078    0.11840000
opls_146-432    H    0.11531010    0.32858012    0.97075097    0.11440000
opls_146-433    H    0.06436010    0.29765005    0.97438024    0.11170000
opls_146-434    H    0.53179012    0.77267984    0.17808069    0.12080000
opls_146-435    H    0.47927004    0.74452003    0.16288074    0.11350000
opls_146-436    H    0.96133000    0.38515007    0.76300993    0.11480000
opls_146-437    H    0.01193003    0.41687005    0.76188015    0.11410000
opls_146-438    H    0.38978005    0.92824998    0.68105015    0.11600000
opls_146-439    H    0.33918013    0.89778980    0.71390077    0.11600000
opls_146-440    H    0.16533009    0.77067992    0.52755041    0.11170000
opls_146-441    H    0.31511992    0.61348006    0.04078940    0.11970000
opls_146-442    H    0.17265010    0.53607994    0.38249039    0.11880000
opls_146-443    H    0.31820001    0.37482999    0.97744000    0.11740000
opls_146-444    H    0.04271003    0.24755998    0.15834053    0.11410000
opls_146-445    H    0.99144003    0.21746988    0.16510075    0.11720000
opls_146-446    H    0.46569995    0.86382996    0.60901055    0.11610000
opls_146-447    H    0.51668009    0.89397993    0.58408026    0.11480000
opls_146-448    H    0.32572994    0.39427990    0.48738984    0.11350000
opls_146-449    H    0.37504999    0.36313987    0.47734047    0.11690000
opls_146-450    H    0.53835996    0.21462004    0.20223978    0.11580000
opls_146-451    H    0.48925001    0.24408005    0.22945996    0.11350000
opls_146-452    H    0.11798005    0.78638985    0.04701043    0.11940000
opls_146-453    H    0.16682995    0.75605985    0.02600998    0.11270000
opls_146-454    H    0.61489002    0.70300981    0.15460975    0.11860000
opls_146-455    H    0.66608004    0.73297981    0.14560052    0.11270000
opls_202-456    S    0.00168000    0.93668005    0.71705018    0.43410000
opls_202-457    S    0.83561995    0.46236005    0.40667058    0.43390000
opls_202-458    S    0.14870011    0.18607014    0.80728095    0.43400000
opls_202-459    S    0.42032995    0.01072001    0.29766068    0.43390000
opls_202-460    S    0.42435999    0.50907995    0.55583972    0.43400000
opls_202-461    S    0.56431017    0.14260013    0.89284099    0.43390000
opls_202-462    S    0.99640013    0.69593986    0.27184054    0.41220000
opls_202-463    S    0.55366016    0.64169991    0.86414037    0.43390000
