#======================================================================
# Crystal Data Generated By AuToFF
#----------------------------------------------------------------------

data_AuToFF_phase_1

_cell_length_a                         37.4130
_cell_length_b                         37.1130
_cell_length_c                         8.2040
_cell_angle_alpha                      90.00
_cell_angle_beta                       89.11
_cell_angle_gamma                      90.00
_symmetry_space_group_name_H-M_alt     'P 1'
_symmetry_space_group_IT_number        1

loop_
_space_group_symop_operation_xyz
   'x, y, z'

loop_
   _atom_site_label
   _atom_site_type_symbol
   _atom_site_fract_x
   _atom_site_fract_y
   _atom_site_fract_z
   _atom_site_charge
opls_174-0    C    0.26630015    0.75790990    0.48749973    0.03930000
opls_174-1    C    0.23339999    0.73299006    0.48744974    0.04040000
opls_197-2    C    0.24929994    0.74581009    0.74623005    0.49840000
opls_135-3    C    0.22600015    0.77015008    0.85264939    -0.51210000
opls_700-4    C    0.23370004    0.81875003    0.44031954    0.00420000
opls_145-5    C    0.23639999    0.83802010    0.58792981    -0.13180000
opls_145-6    C    0.21020014    0.86260987    0.63599991    -0.12140000
opls_700-7    C    0.18039996    0.86885000    0.53816034    0.05780000
opls_145-8    C    0.17720000    0.84987013    0.39139000    -0.12170000
opls_145-9    C    0.20350003    0.82547005    0.34238975    -0.13290000
opls_175-10    C    0.26460002    0.79395010    0.38354045    0.19690000
opls_142-11    C    0.15330010    0.89550993    0.59042036    0.06920000
opls_145-12    C    0.09530016    0.92343006    0.56137983    0.19400000
opls_700-13    C    0.29960015    0.81598011    0.39236037    0.00420000
opls_145-14    C    0.33040005    0.80448010    0.47655985    -0.13320000
opls_145-15    C    0.36100013    0.82578988    0.48112037    -0.12380000
opls_700-16    C    0.36230007    0.85914989    0.40178983    0.06160000
opls_145-17    C    0.33229989    0.87064991    0.31523024    -0.12030000
opls_145-18    C    0.30159996    0.84927007    0.30961036    -0.13380000
opls_135-19    C    0.27240015    0.72156010    0.85293953    -0.51100000
opls_142-20    C    0.39549998    0.88085011    0.40779006    0.06850000
opls_145-21    C    0.42770006    0.93610002    0.33312975    0.18790000
opls_700-22    C    0.26640001    0.67203999    0.44705974    0.00430000
opls_145-23    C    0.29719998    0.66521003    0.35170949    -0.12020000
opls_145-24    C    0.32309989    0.64079999    0.40310032    -0.13440000
opls_700-25    C    0.31899993    0.62189987    0.54972925    0.05190000
opls_145-26    C    0.28869999    0.62839005    0.64549032    -0.12710000
opls_145-27    C    0.26279996    0.65301997    0.59507962    -0.11970000
opls_175-28    C    0.23569990    0.69655000    0.38661005    0.19700000
opls_142-29    C    0.34549995    0.59487996    0.60338997    0.06880000
opls_145-30    C    0.40270011    0.56534988    0.57536005    0.18490000
opls_700-31    C    0.20070006    0.67445989    0.39503012    0.00410000
opls_145-32    C    0.19940000    0.64073990    0.31580930    -0.11970000
opls_145-33    C    0.16880001    0.61926010    0.32145966    -0.12740000
opls_700-34    C    0.13809998    0.63111012    0.40397927    0.05190000
opls_145-35    C    0.13880001    0.66490987    0.47948926    -0.13390000
opls_145-36    C    0.16940002    0.68630992    0.47532982    -0.11310000
opls_142-37    C    0.10510014    0.60926010    0.40927975    0.06890000
opls_145-38    C    0.07429993    0.55271010    0.34524968    0.19340000
opls_145-39    C    0.10270010    0.95664996    0.63630955    -0.17080000
opls_145-40    C    0.07499990    0.97796001    0.69754920    -0.12410000
opls_700-41    C    0.03949996    0.96656994    0.68471002    0.10320000
opls_145-42    C    0.03210004    0.93457010    0.60055931    -0.13080000
opls_145-43    C    0.05980005    0.91347991    0.53724970    -0.15560000
opls_145-44    C    0.39390000    0.53212998    0.64723968    -0.17070000
opls_145-45    C    0.42060004    0.50975992    0.70842933    -0.12450000
opls_700-46    C    0.45650012    0.52006009    0.69866951    0.09660000
opls_145-47    C    0.46530002    0.55218010    0.61826986    -0.12180000
opls_145-48    C    0.43860004    0.57432005    0.55453967    -0.16450000
opls_145-49    C    0.03890009    0.56510010    0.35228977    -0.17220000
opls_145-50    C    0.01050011    0.54149004    0.32156937    -0.12020000
opls_700-51    C    0.01700002    0.50520006    0.28415998    0.09660000
opls_145-52    C    0.08049988    0.51627004    0.31266046    -0.17990000
opls_145-53    C    0.46270004    0.92400992    0.35978944    -0.17330000
opls_145-54    C    0.49180009    0.94672002    0.32789997    -0.11860000
opls_700-55    C    0.48639997    0.98191011    0.27085025    0.10440000
opls_145-56    C    0.45139989    0.99426993    0.25036023    -0.13070000
opls_145-57    C    0.42250010    0.97155013    0.28057959    -0.17000000
opls_701-58    C    0.51670012    0.00226012    0.19171963    -0.25670000
opls_701-59    C    0.01160000    0.98271010    0.79471951    -0.27030000
opls_174-60    C    0.23603000    0.21940991    0.51479943    0.06140000
opls_174-61    C    0.26519999    0.24841996    0.50009996    0.06140000
opls_197-62    C    0.25352013    0.23666990    0.76512918    0.49850000
opls_135-63    C    0.27513015    0.21008003    0.86666008    -0.51100000
opls_700-64    C    0.17482003    0.19265001    0.42982950    0.00400000
opls_145-65    C    0.18205007    0.16153989    0.52354986    -0.13280000
opls_145-66    C    0.15793003    0.13295988    0.53058020    -0.12140000
opls_700-67    C    0.12589991    0.13421012    0.44453994    0.06020000
opls_145-68    C    0.11828998    0.16486002    0.35100000    -0.12670000
opls_145-69    C    0.14243998    0.19354000    0.34348935    -0.13380000
opls_175-70    C    0.20033014    0.22527012    0.41612967    0.19700000
opls_142-71    C    0.10199001    0.10253011    0.44887980    0.06820000
opls_145-72    C    0.04867999    0.07161992    0.35405985    0.18930000
opls_700-73    C    0.17988993    0.25901005    0.47644038    0.00420000
opls_145-74    C    0.16182994    0.25807992    0.62752986    -0.11770000
opls_145-75    C    0.14025012    0.28662005    0.67796982    -0.13390000
opls_700-76    C    0.13598995    0.31711988    0.57959020    0.05640000
opls_145-77    C    0.15433014    0.31888988    0.43068041    -0.12710000
opls_145-78    C    0.17574995    0.29018996    0.37911038    -0.12650000
opls_135-79    C    0.23493004    0.26407000    0.87560923    -0.51200000
opls_142-80    C    0.11085015    0.34557002    0.63160031    0.06900000
opls_145-81    C    0.08281002    0.40341013    0.59999000    0.18970000
opls_700-82    C    0.32519009    0.27009996    0.37041967    0.00220000
opls_145-83    C    0.35482001    0.26478997    0.26707969    -0.14020000
opls_145-84    C    0.38132991    0.29083987    0.25152931    -0.13800000
opls_700-85    C    0.37913997    0.32324010    0.33808037    0.05590000
opls_145-86    C    0.34931997    0.32948994    0.43788995    -0.12840000
opls_145-87    C    0.32255996    0.30339989    0.45334036    -0.12040000
opls_175-88    C    0.29876995    0.23858998    0.39109986    0.19720000
opls_142-89    C    0.40803012    0.34999003    0.31888987    0.07270000
opls_145-90    C    0.43392995    0.40846011    0.37573967    0.18990000
opls_700-91    C    0.32021992    0.20670008    0.46292951    0.00650000
opls_145-92    C    0.32285005    0.17294991    0.38370990    -0.13370000
opls_145-93    C    0.34615001    0.14636004    0.43983923    -0.13140000
opls_700-94    C    0.36774995    0.15274001    0.57551975    0.06020000
opls_145-95    C    0.36479006    0.18571013    0.65723965    -0.11920000
opls_145-96    C    0.34154005    0.21227009    0.60175033    -0.13360000
opls_142-97    C    0.39479990    0.12648991    0.62945964    0.06900000
opls_145-98    C    0.42570999    0.06976989    0.60355942    0.18790000
opls_145-99    C    0.01365994    0.07728990    0.30220943    -0.17330000
opls_145-100    C    0.99170012    0.04816991    0.26230949    -0.12800000
opls_700-101    C    0.00443991    0.01273004    0.27298970    0.09910000
opls_145-102    C    0.03915993    0.00701991    0.32913000    -0.12020000
opls_145-103    C    0.06105008    0.03601002    0.36986988    -0.17130000
opls_145-104    C    0.46884989    0.40116994    0.32203993    -0.17820000
opls_145-105    C    0.49178998    0.42938000    0.28008953    -0.12830000
opls_700-106    C    0.48050991    0.46529006    0.29324932    0.11320000
opls_145-107    C    0.44659993    0.47244012    0.35769022    -0.13090000
opls_145-108    C    0.42374011    0.44427990    0.40071949    -0.17840000
opls_145-109    C    0.45938991    0.08127987    0.65570973    -0.17250000
opls_145-110    C    0.48456993    0.05635007    0.70822941    -0.12150000
opls_700-111    C    0.47694000    0.01934012    0.70758940    0.09660000
opls_145-112    C    0.44393009    0.00768006    0.64869036    -0.12510000
opls_145-113    C    0.41865016    0.03275995    0.59521006    -0.17190000
opls_145-114    C    0.04852016    0.39405006    0.65389942    -0.18930000
opls_145-115    C    0.02523012    0.42040013    0.71145993    -0.13480000
opls_700-116    C    0.03551999    0.45673996    0.71535971    0.10320000
opls_145-117    C    0.06907015    0.46637997    0.65360928    -0.12770000
opls_145-118    C    0.09234016    0.43990004    0.59383983    -0.16730000
opls_701-119    C    0.01422013    0.48284994    0.81671019    -0.25830000
opls_701-120    C    0.49950004    0.49417994    0.19822943    -0.24950000
opls_145-121    C    0.94773998    0.99273004    0.71696034    -0.12410000
opls_174-122    C    0.73370012    0.25790990    0.51250027    0.03930000
opls_174-123    C    0.76660001    0.23299006    0.51255026    0.04040000
opls_197-124    C    0.75070006    0.24581009    0.25376995    0.49850000
opls_135-125    C    0.77400012    0.27015008    0.14734939    -0.51210000
opls_700-126    C    0.76629997    0.31875003    0.55967924    0.00420000
opls_145-127    C    0.76360001    0.33802010    0.41207019    -0.13170000
opls_145-128    C    0.78980012    0.36260987    0.36400009    -0.12150000
opls_700-129    C    0.81960004    0.36885000    0.46183966    0.05780000
opls_145-130    C    0.82280000    0.34987013    0.60861000    -0.12180000
opls_145-131    C    0.79649997    0.32547005    0.65761025    -0.13290000
opls_175-132    C    0.73539998    0.29395010    0.61645955    0.19690000
opls_142-133    C    0.84669990    0.39550993    0.40957964    0.06920000
opls_145-134    C    0.90470011    0.42343006    0.43862017    0.19400000
opls_700-135    C    0.70040012    0.31598011    0.60763963    0.00420000
opls_145-136    C    0.66959995    0.30448010    0.52344015    -0.13320000
opls_145-137    C    0.63900014    0.32578988    0.51887963    -0.12380000
opls_700-138    C    0.63769993    0.35914989    0.59821017    0.06160000
opls_145-139    C    0.66770011    0.37064991    0.68476976    -0.12030000
opls_145-140    C    0.69840004    0.34927007    0.69038964    -0.13380000
opls_135-141    C    0.72760012    0.22156010    0.14706047    -0.51100000
opls_142-142    C    0.60450002    0.38085011    0.59220994    0.06850000
opls_145-143    C    0.57229994    0.43610002    0.66687025    0.18790000
opls_700-144    C    0.73359999    0.17203999    0.55294026    0.00430000
opls_145-145    C    0.70280002    0.16521003    0.64828929    -0.12020000
opls_145-146    C    0.67690011    0.14079999    0.59689968    -0.13440000
opls_700-147    C    0.68100007    0.12189987    0.45026953    0.05190000
opls_145-148    C    0.71130001    0.12839005    0.35450968    -0.12710000
opls_145-149    C    0.73720004    0.15301997    0.40492038    -0.11970000
opls_175-150    C    0.76430010    0.19655000    0.61338995    0.19690000
opls_142-151    C    0.65450005    0.09487996    0.39661003    0.06880000
opls_145-152    C    0.59729989    0.06534988    0.42463995    0.18490000
opls_700-153    C    0.79929994    0.17445989    0.60496988    0.00410000
opls_145-154    C    0.80060000    0.14073990    0.68418948    -0.11970000
opls_145-155    C    0.83119999    0.11926010    0.67854034    -0.12730000
opls_700-156    C    0.86190002    0.13111012    0.59601951    0.05190000
opls_145-157    C    0.86119999    0.16490987    0.52050952    -0.13390000
opls_145-158    C    0.83059998    0.18630992    0.52467018    -0.11320000
opls_142-159    C    0.89490013    0.10926010    0.59072025    0.06890000
opls_145-160    C    0.92570007    0.05271010    0.65475032    0.19340000
opls_145-161    C    0.89729990    0.45664996    0.36369045    -0.17080000
opls_145-162    C    0.92500010    0.47796001    0.30244959    -0.12410000
opls_700-163    C    0.96050004    0.46656994    0.31528998    0.10320000
opls_145-164    C    0.96789996    0.43457010    0.39943947    -0.13080000
opls_145-165    C    0.94019995    0.41347991    0.46275030    -0.15560000
opls_145-166    C    0.60610000    0.03212998    0.35276032    -0.17080000
opls_145-167    C    0.57939996    0.00975992    0.29156945    -0.12450000
opls_700-168    C    0.54349988    0.02006009    0.30133049    0.09660000
opls_145-169    C    0.53469998    0.05218010    0.38173014    -0.12180000
opls_145-170    C    0.56139996    0.07432005    0.44546033    -0.16450000
opls_145-171    C    0.96109991    0.06510010    0.64771023    -0.17220000
opls_145-172    C    0.98950016    0.04149004    0.67842941    -0.12020000
opls_700-173    C    0.98299998    0.00520006    0.71584002    0.09660000
opls_145-174    C    0.91950012    0.01627004    0.68733954    -0.18000000
opls_145-175    C    0.53729996    0.42400992    0.64020934    -0.17330000
opls_145-176    C    0.50819991    0.44672002    0.67210003    -0.11860000
opls_700-177    C    0.51360003    0.48191011    0.72914975    0.10440000
opls_145-178    C    0.54860011    0.49426993    0.74963977    -0.13080000
opls_145-179    C    0.57750017    0.47155013    0.71941919    -0.16990000
opls_701-180    C    0.48330015    0.50226012    0.80827915    -0.25660000
opls_701-181    C    0.98840000    0.48271010    0.20528049    -0.27040000
opls_174-182    C    0.76397000    0.71940991    0.48519935    0.06140000
opls_174-183    C    0.73480001    0.74841996    0.49990004    0.06140000
opls_197-184    C    0.74648014    0.73666990    0.23486960    0.49840000
opls_135-185    C    0.72487012    0.71008003    0.13333992    -0.51090000
opls_700-186    C    0.82517998    0.69265001    0.57016928    0.00400000
opls_145-187    C    0.81794993    0.66153989    0.47645014    -0.13280000
opls_145-188    C    0.84206997    0.63295988    0.46941980    -0.12140000
opls_700-189    C    0.87410009    0.63421012    0.55546006    0.06020000
opls_145-190    C    0.88171002    0.66486002    0.64900000    -0.12680000
opls_145-191    C    0.85756003    0.69354000    0.65650943    -0.13380000
opls_175-192    C    0.79967013    0.72527012    0.58387033    0.19700000
opls_142-193    C    0.89800999    0.60253011    0.55112020    0.06820000
opls_145-194    C    0.95132001    0.57161992    0.64594015    0.18930000
opls_700-195    C    0.82011007    0.75901005    0.52355962    0.00420000
opls_145-196    C    0.83817006    0.75807992    0.37247014    -0.11770000
opls_145-197    C    0.85975014    0.78662005    0.32203018    -0.13390000
opls_700-198    C    0.86401005    0.81711988    0.42040980    0.05640000
opls_145-199    C    0.84567013    0.81888988    0.56931959    -0.12710000
opls_145-200    C    0.82425005    0.79018996    0.62088962    -0.12660000
opls_135-201    C    0.76506996    0.76407000    0.12438955    -0.51200000
opls_142-202    C    0.88915011    0.84557002    0.36839969    0.06900000
opls_145-203    C    0.91718998    0.90341013    0.40001000    0.18970000
opls_700-204    C    0.67480991    0.77009996    0.62958033    0.00220000
opls_145-205    C    0.64517999    0.76478997    0.73292031    -0.14020000
opls_145-206    C    0.61867010    0.79083987    0.74846947    -0.13800000
opls_700-207    C    0.62086003    0.82324010    0.66191963    0.05600000
opls_145-208    C    0.65068003    0.82948994    0.56211005    -0.12840000
opls_145-209    C    0.67744004    0.80339989    0.54665964    -0.12040000
opls_175-210    C    0.70123005    0.73858998    0.60890014    0.19720000
opls_142-211    C    0.59197014    0.84999003    0.68111013    0.07270000
opls_145-212    C    0.56607005    0.90846011    0.62426033    0.18990000
opls_700-213    C    0.67978008    0.70670008    0.53706927    0.00650000
opls_145-214    C    0.67714995    0.67294991    0.61629010    -0.13370000
opls_145-215    C    0.65384999    0.64636004    0.56015955    -0.13120000
opls_700-216    C    0.63225005    0.65274001    0.42448025    0.06030000
opls_145-217    C    0.63520994    0.68571013    0.34276035    -0.11920000
opls_145-218    C    0.65845995    0.71227009    0.39824967    -0.13360000
opls_142-219    C    0.60520010    0.62648991    0.37054036    0.06900000
opls_145-220    C    0.57429001    0.56976989    0.39643936    0.18790000
opls_145-221    C    0.98634006    0.57728990    0.69778935    -0.17330000
opls_145-222    C    0.00830015    0.54816991    0.73768929    -0.12800000
opls_700-223    C    0.99556009    0.51273004    0.72701030    0.09910000
opls_145-224    C    0.96084007    0.50701991    0.67087000    -0.12020000
opls_145-225    C    0.93894992    0.53601002    0.63013012    -0.17130000
opls_145-226    C    0.53115011    0.90116994    0.67796007    -0.17830000
opls_145-227    C    0.50821002    0.92938000    0.71990925    -0.12830000
opls_700-228    C    0.51949009    0.96529006    0.70674947    0.11330000
opls_145-229    C    0.55340007    0.97244012    0.64230978    -0.13090000
opls_145-230    C    0.57625990    0.94427990    0.59927929    -0.17830000
opls_145-231    C    0.54061009    0.58127987    0.34429027    -0.17250000
opls_145-232    C    0.51543007    0.55635007    0.29176937    -0.12150000
opls_700-233    C    0.52306001    0.51934012    0.29240938    0.09660000
opls_145-234    C    0.55606991    0.50768006    0.35130964    -0.12510000
opls_145-235    C    0.58135011    0.53275995    0.40478994    -0.17190000
opls_145-236    C    0.95148011    0.89405006    0.34609936    -0.18930000
opls_145-237    C    0.97477014    0.92040013    0.28854007    -0.13480000
opls_700-238    C    0.96448001    0.95673996    0.28464029    0.10320000
opls_145-239    C    0.93093012    0.96637997    0.34638950    -0.12770000
opls_145-240    C    0.90766011    0.93990004    0.40616017    -0.16730000
opls_701-241    C    0.98578014    0.98284994    0.18328981    -0.25830000
opls_701-242    C    0.50049997    0.99417994    0.80176935    -0.24960000
opls_145-243    C    0.05226002    0.49273004    0.28303966    -0.12410000
opls_750-244    N    0.12309990    0.89874006    0.51491036    -0.35310000
opls_750-245    N    0.39700013    0.91286988    0.34389042    -0.34560000
opls_750-246    N    0.37580008    0.59088002    0.52827983    -0.35800000
opls_750-247    N    0.10460006    0.57636004    0.35518017    -0.34560000
opls_750-248    N    0.07187992    0.10226012    0.37139005    -0.34760000
opls_750-249    N    0.10835993    0.37622989    0.55558928    -0.35770000
opls_750-250    N    0.40760010    0.38062997    0.39564941    -0.35770000
opls_750-251    N    0.39840000    0.09513001    0.56048016    -0.34560000
opls_750-252    N    0.87690010    0.39874006    0.48508964    -0.35310000
opls_750-253    N    0.60300014    0.41286988    0.65610958    -0.34550000
opls_750-254    N    0.62419992    0.09088002    0.47172017    -0.35790000
opls_750-255    N    0.89539994    0.07636004    0.64481983    -0.34560000
opls_750-256    N    0.92812008    0.60226012    0.62860995    -0.34760000
opls_750-257    N    0.89164007    0.87622989    0.44440950    -0.35780000
opls_750-258    N    0.59239990    0.88062997    0.60434937    -0.35750000
opls_750-259    N    0.60160000    0.59513001    0.43951984    -0.34560000
opls_186-260    O    0.27199997    0.76715006    0.65012032    -0.21260000
opls_171-261    O    0.24009990    0.70475009    0.22065044    -0.46530000
opls_186-262    O    0.22680002    0.72440008    0.65039949    -0.22770000
opls_171-263    O    0.26099996    0.78510010    0.21801970    -0.48650000
opls_186-264    O    0.22767013    0.21713012    0.68005930    -0.21310000
opls_171-265    O    0.28730011    0.23067012    0.23229006    -0.44200000
opls_186-266    O    0.27636005    0.25542990    0.65890977    -0.22460000
opls_171-267    O    0.20832003    0.22814000    0.24891930    -0.43220000
opls_186-268    O    0.72800003    0.26715006    0.34987968    -0.21240000
opls_171-269    O    0.75990010    0.20475009    0.77934956    -0.46530000
opls_186-270    O    0.77319998    0.22440008    0.34959929    -0.22770000
opls_171-271    O    0.73900004    0.28510010    0.78198030    -0.48650000
opls_186-272    O    0.77233014    0.71713012    0.31993949    -0.21310000
opls_171-273    O    0.71270015    0.73067012    0.76770994    -0.44200000
opls_186-274    O    0.72363995    0.75542990    0.34109023    -0.22450000
opls_171-275    O    0.79167998    0.72814000    0.75107948    -0.43220000
opls_176-276    H    0.28950004    0.74194002    0.44492029    0.04230000
opls_176-277    H    0.21050009    0.74877994    0.44197015    0.05390000
opls_140-278    H    0.21130000    0.75398998    0.94474962    0.10110000
opls_140-279    H    0.20609992    0.78424002    0.77624948    0.16490000
opls_140-280    H    0.24250008    0.79070002    0.91475944    0.16720000
opls_146-281    H    0.25940003    0.83468003    0.66516966    0.11220000
opls_146-282    H    0.21339997    0.87700994    0.74973973    0.11640000
opls_146-283    H    0.15459994    0.85433999    0.31245931    0.11060000
opls_146-284    H    0.19980000    0.81266995    0.22569005    0.11960000
opls_144-285    H    0.15850008    0.91125994    0.69886944    0.09910000
opls_146-286    H    0.33160009    0.77901005    0.53925993    0.11460000
opls_146-287    H    0.38400014    0.81605987    0.54710948    0.11120000
opls_146-288    H    0.33250009    0.89607011    0.25081982    0.11790000
opls_146-289    H    0.27900013    0.85892005    0.24085032    0.11150000
opls_140-290    H    0.29250000    0.70751004    0.77682975    0.12050000
opls_140-291    H    0.25580006    0.70098995    0.91498009    0.13240000
opls_140-292    H    0.28690005    0.73778999    0.94494954    0.11040000
opls_144-293    H    0.41840002    0.86935009    0.46700971    0.11380000
opls_146-294    H    0.30159998    0.67786005    0.23504027    0.12650000
opls_146-295    H    0.34610000    0.63619998    0.32591046    0.09500000
opls_146-296    H    0.28480015    0.61407000    0.75914968    0.11900000
opls_146-297    H    0.23940008    0.65652009    0.67058961    0.10520000
opls_144-298    H    0.33960001    0.57928004    0.71176957    0.12010000
opls_146-299    H    0.22239991    0.63080996    0.24993966    0.09500000
opls_146-300    H    0.16909995    0.59348988    0.25994938    0.11610000
opls_146-301    H    0.11540007    0.67489990    0.54233928    0.22420000
opls_146-302    H    0.16779992    0.71209010    0.53521020    0.08580000
opls_144-303    H    0.08129998    0.62123003    0.46074007    0.09940000
opls_172-304    H    0.26250007    0.71842993    0.20743946    0.35700000
opls_172-305    H    0.23860003    0.77145987    0.20470022    0.34080000
opls_146-306    H    0.12979993    0.96565004    0.65192941    0.09020000
opls_146-307    H    0.08150001    0.00236009    0.76322988    0.11070000
opls_146-308    H    0.00509993    0.92470994    0.59437987    0.09610000
opls_146-309    H    0.05359995    0.88814000    0.47877977    0.11560000
opls_146-310    H    0.36650010    0.52388004    0.66017028    0.09500000
opls_146-311    H    0.41300009    0.48530003    0.77131959    0.11740000
opls_146-312    H    0.49270008    0.56127987    0.61528925    0.11780000
opls_146-313    H    0.44589994    0.59965996    0.49838962    0.11600000
opls_146-314    H    0.03290014    0.59317005    0.37296995    0.11260000
opls_146-315    H    0.98369996    0.55201008    0.31726974    0.09480000
opls_146-316    H    0.10750004    0.50628001    0.30489015    0.09020000
opls_146-317    H    0.46810014    0.89666990    0.39668927    0.11420000
opls_146-318    H    0.51850002    0.93610999    0.33809987    0.09630000
opls_146-319    H    0.44649995    0.02094010    0.20234011    0.11810000
opls_146-320    H    0.39580007    0.98127987    0.25780993    0.11900000
opls_702-321    H    0.50570013    0.02400992    0.11426036    0.10470000
opls_702-322    H    0.53069998    0.98318002    0.10899035    0.10520000
opls_702-323    H    0.02450016    0.99947997    0.88964918    0.11920000
opls_702-324    H    0.99890006    0.95976989    0.85914944    0.10000000
opls_176-325    H    0.24778004    0.19322987    0.47775941    0.05540000
opls_176-326    H    0.25305011    0.27348988    0.45193965    0.05440000
opls_140-327    H    0.28551010    0.18816991    0.78780010    0.12550000
opls_140-328    H    0.25798012    0.19743001    0.96109969    0.12240000
opls_140-329    H    0.29798013    0.22387007    0.92471919    0.16730000
opls_146-330    H    0.20623008    0.15837011    0.59200026    0.12230000
opls_146-331    H    0.16457012    0.10952011    0.60281945    0.11640000
opls_146-332    H    0.09386993    0.16655997    0.28208026    0.11220000
opls_146-333    H    0.13585004    0.21669011    0.26938981    0.11100000
opls_144-334    H    0.11060993    0.07908011    0.51606969    0.08690000
opls_146-335    H    0.16332014    0.23456013    0.70490990    0.11790000
opls_146-336    H    0.12622998    0.28450004    0.79321031    0.09850000
opls_146-337    H    0.15129990    0.34198987    0.35154980    0.11540000
opls_146-338    H    0.18810013    0.29265998    0.26062962    0.09500000
opls_140-339    H    0.21340008    0.25085011    0.94640023    0.12300000
opls_140-340    H    0.22280998    0.28566998    0.80070998    0.16490000
opls_140-341    H    0.25420006    0.27666990    0.96041946    0.11090000
opls_144-342    H    0.09438004    0.34040013    0.73786971    0.09990000
opls_146-343    H    0.35777002    0.23983995    0.20007997    0.12000000
opls_146-344    H    0.40383988    0.28547005    0.17234994    0.09500000
opls_146-345    H    0.34667001    0.35451998    0.50444958    0.11790000
opls_146-346    H    0.30033993    0.30972004    0.53182974    0.08810000
opls_144-347    H    0.42891998    0.34413009    0.23162933    0.10330000
opls_146-348    H    0.30805994    0.16686013    0.27483049    0.11770000
opls_146-349    H    0.34799006    0.12118988    0.37384037    0.11620000
opls_146-350    H    0.38126001    0.19138011    0.76204008    0.11160000
opls_146-351    H    0.34129012    0.23787999    0.66451014    0.11880000
opls_144-352    H    0.41192004    0.13404009    0.72964957    0.10480000
opls_172-353    H    0.27116991    0.20970011    0.23622032    0.34900000
opls_172-354    H    0.22456994    0.24874006    0.23239977    0.35710000
opls_146-355    H    0.00381007    0.10443995    0.28687971    0.11870000
opls_146-356    H    0.96539997    0.05341013    0.21433935    0.11520000
opls_146-357    H    0.05024998    0.98009996    0.32997969    0.11770000
opls_146-358    H    0.08822999    0.03029989    0.40316006    0.10870000
opls_146-359    H    0.47815991    0.37382992    0.30726976    0.12130000
opls_146-360    H    0.51764000    0.42312990    0.22861946    0.09390000
opls_146-361    H    0.43684004    0.49982001    0.36301996    0.11600000
opls_146-362    H    0.39709996    0.45043004    0.44282959    0.09500000
opls_146-363    H    0.46613005    0.10957993    0.65823928    0.11600000
opls_146-364    H    0.50965009    0.06614987    0.75489027    0.11770000
opls_146-365    H    0.43715003    0.97939994    0.65114921    0.11780000
opls_146-366    H    0.39295999    0.02342010    0.55392039    0.11850000
opls_146-367    H    0.04001994    0.36621992    0.65515018    0.11470000
opls_146-368    H    0.99959996    0.41212001    0.75965925    0.09610000
opls_146-369    H    0.07783990    0.49410988    0.65909994    0.11790000
opls_146-370    H    0.11852008    0.44762994    0.55100926    0.09500000
opls_702-371    H    0.03187010    0.49422008    0.91199948    0.11700000
opls_702-372    H    0.99329994    0.46753995    0.88156923    0.10290000
opls_702-373    H    0.47856004    0.51018996    0.13734942    0.10100000
opls_702-374    H    0.51591013    0.48174009    0.10034963    0.13140000
opls_146-375    H    0.94185009    0.96511007    0.74938986    0.11870000
opls_176-376    H    0.71049996    0.24194002    0.55507971    0.04230000
opls_176-377    H    0.78949991    0.24877994    0.55802985    0.05390000
opls_140-378    H    0.78870000    0.25398998    0.05525038    0.10110000
opls_140-379    H    0.79390008    0.28424002    0.22375052    0.16490000
opls_140-380    H    0.75749992    0.29070002    0.08524056    0.16730000
opls_146-381    H    0.74059997    0.33468003    0.33483034    0.11220000
opls_146-382    H    0.78660003    0.37700994    0.25026027    0.11640000
opls_146-383    H    0.84540006    0.35433999    0.68753947    0.11060000
opls_146-384    H    0.80020000    0.31266995    0.77430995    0.11950000
opls_144-385    H    0.84149992    0.41125994    0.30112934    0.09910000
opls_146-386    H    0.66839991    0.27901005    0.46074007    0.11450000
opls_146-387    H    0.61600014    0.31605987    0.45288930    0.11210000
opls_146-388    H    0.66749991    0.39607011    0.74918018    0.11790000
opls_146-389    H    0.72100013    0.35892005    0.75914968    0.11150000
opls_140-390    H    0.70750000    0.20751004    0.22317025    0.12050000
opls_140-391    H    0.74419994    0.20098995    0.08501991    0.13240000
opls_140-392    H    0.71309995    0.23778999    0.05505046    0.11040000
opls_144-393    H    0.58159998    0.36935009    0.53299029    0.11370000
opls_146-394    H    0.69840002    0.17786005    0.76495973    0.12650000
opls_146-395    H    0.65390000    0.13619998    0.67408954    0.09500000
opls_146-396    H    0.71520012    0.11407000    0.24085032    0.11900000
opls_146-397    H    0.76059992    0.15652009    0.32941039    0.10520000
opls_144-398    H    0.66039999    0.07928004    0.28823043    0.12010000
opls_146-399    H    0.77760010    0.13080996    0.75005912    0.09500000
opls_146-400    H    0.83090005    0.09348988    0.74004940    0.11790000
opls_146-401    H    0.88459993    0.17489990    0.45765950    0.22430000
opls_146-402    H    0.83220008    0.21209010    0.46478980    0.08570000
opls_144-403    H    0.91870002    0.12123003    0.53925993    0.09940000
opls_172-404    H    0.73749993    0.21842993    0.79255933    0.35700000
opls_172-405    H    0.76139997    0.27145987    0.79529978    0.34080000
opls_146-406    H    0.87020007    0.46565004    0.34806937    0.09020000
opls_146-407    H    0.91849999    0.50236009    0.23677012    0.11070000
opls_146-408    H    0.99490007    0.42470994    0.40562013    0.09610000
opls_146-409    H    0.94640005    0.38814000    0.52122023    0.11550000
opls_146-410    H    0.63349990    0.02388004    0.33982972    0.09500000
opls_146-411    H    0.58699991    0.98530003    0.22868041    0.11750000
opls_146-412    H    0.50729992    0.06127987    0.38470953    0.11780000
opls_146-413    H    0.55410006    0.09965996    0.50161038    0.11600000
opls_146-414    H    0.96710013    0.09317005    0.62703005    0.11260000
opls_146-415    H    0.01630004    0.05201008    0.68273026    0.09480000
opls_146-416    H    0.89249996    0.00628001    0.69510985    0.09020000
opls_146-417    H    0.53190013    0.39666990    0.60330951    0.11420000
opls_146-418    H    0.48149998    0.43610999    0.66190013    0.09630000
opls_146-419    H    0.55350005    0.52094010    0.79765989    0.11810000
opls_146-420    H    0.60419993    0.48127987    0.74219007    0.11900000
opls_702-421    H    0.49430014    0.52400992    0.88573964    0.10470000
opls_702-422    H    0.46930002    0.48318002    0.89100965    0.10520000
opls_702-423    H    0.97550011    0.49947997    0.11034960    0.11920000
opls_702-424    H    0.00109994    0.45976989    0.14084935    0.10000000
opls_176-425    H    0.75221997    0.69322987    0.52223937    0.05540000
opls_176-426    H    0.74694989    0.77348988    0.54806035    0.05440000
opls_140-427    H    0.71448990    0.68816991    0.21219990    0.12550000
opls_140-428    H    0.74201988    0.69743001    0.03890031    0.12220000
opls_140-429    H    0.70201987    0.72387007    0.07527959    0.16730000
opls_146-430    H    0.79376992    0.65837011    0.40799974    0.12230000
opls_146-431    H    0.83543015    0.60952011    0.39717933    0.11640000
opls_146-432    H    0.90613007    0.66655997    0.71791974    0.11220000
opls_146-433    H    0.86414996    0.71669011    0.73061019    0.11110000
opls_144-434    H    0.88939007    0.57908011    0.48393031    0.08690000
opls_146-435    H    0.83668013    0.73456013    0.29509010    0.11790000
opls_146-436    H    0.87377002    0.78450004    0.20678969    0.09850000
opls_146-437    H    0.84870010    0.84198987    0.64845020    0.11540000
opls_146-438    H    0.81190014    0.79265998    0.73936916    0.09500000
opls_140-439    H    0.78659992    0.75085011    0.05359977    0.12300000
opls_140-440    H    0.77719002    0.78566998    0.19929002    0.16490000
opls_140-441    H    0.74579994    0.77666990    0.03958054    0.11090000
opls_144-442    H    0.90561996    0.84040013    0.26213029    0.09990000
opls_146-443    H    0.64222998    0.73983995    0.79992003    0.12000000
opls_146-444    H    0.59616012    0.78547005    0.82765006    0.09500000
opls_146-445    H    0.65332999    0.85451998    0.49555042    0.11810000
opls_146-446    H    0.69966007    0.80972004    0.46817026    0.08810000
opls_144-447    H    0.57108003    0.84413009    0.76836945    0.10320000
opls_146-448    H    0.69194006    0.66686013    0.72516951    0.11770000
opls_146-449    H    0.65200994    0.62118988    0.62615963    0.11610000
opls_146-450    H    0.61873999    0.69138011    0.23795992    0.11160000
opls_146-451    H    0.65871015    0.73787999    0.33548986    0.11870000
opls_144-452    H    0.58807996    0.63404009    0.27035043    0.10480000
opls_172-453    H    0.72883009    0.70970011    0.76377968    0.34900000
opls_172-454    H    0.77543006    0.74874006    0.76760023    0.34910000
opls_146-455    H    0.99618993    0.60443995    0.71312029    0.11870000
opls_146-456    H    0.03460004    0.55341013    0.78565943    0.11520000
opls_146-457    H    0.94975002    0.48009996    0.67002031    0.11770000
opls_146-458    H    0.91177001    0.53029989    0.59683994    0.10860000
opls_146-459    H    0.52184009    0.87382992    0.69273024    0.12130000
opls_146-460    H    0.48236000    0.92312990    0.77137932    0.09390000
opls_146-461    H    0.56315996    0.99982001    0.63698004    0.11600000
opls_146-462    H    0.60290005    0.95043004    0.55716919    0.09510000
opls_146-463    H    0.53386995    0.60957993    0.34175950    0.11600000
opls_146-464    H    0.49034991    0.56614987    0.24510973    0.11770000
opls_146-465    H    0.56284997    0.47939994    0.34884957    0.11780000
opls_146-466    H    0.60704001    0.52342010    0.44607961    0.11850000
opls_146-467    H    0.95998006    0.86621992    0.34484982    0.11470000
opls_146-468    H    0.00040004    0.91212001    0.24033953    0.09620000
opls_146-469    H    0.92216010    0.99410988    0.34090006    0.11790000
opls_146-470    H    0.88147992    0.94762994    0.44898952    0.09490000
opls_702-471    H    0.96812990    0.99422008    0.08800052    0.11700000
opls_702-472    H    0.00670006    0.96753995    0.11842955    0.10290000
opls_702-473    H    0.52143997    0.01018996    0.86264937    0.10100000
opls_702-474    H    0.48409014    0.98174009    0.89964915    0.13140000
opls_146-475    H    0.05814991    0.46511007    0.25061014    0.11870000
