#======================================================================
# Crystal Data Generated By AuToFF
#----------------------------------------------------------------------

data_AuToFF_phase_1

_cell_length_a                         42.6323
_cell_length_b                         43.7221
_cell_length_c                         4.5734
_cell_angle_alpha                      90.00
_cell_angle_beta                       78.80
_cell_angle_gamma                      90.00
_symmetry_space_group_name_H-M_alt     'P 1'
_symmetry_space_group_IT_number        1

loop_
_space_group_symop_operation_xyz
   'x, y, z'

loop_
   _atom_site_label
   _atom_site_type_symbol
   _atom_site_fract_x
   _atom_site_fract_y
   _atom_site_fract_z
   _atom_site_charge
opls_700-0    C    0.47202012    0.06528003    0.46498005    0.01610000
opls_700-1    C    0.47169002    0.03269994    0.48204980    0.03040000
opls_145-2    C    0.44383001    0.01599008    0.49006085    -0.18340000
opls_145-3    C    0.42470998    0.07572989    0.19343111    -0.14130000
opls_145-4    C    0.44389008    0.08379995    0.40660901    0.06460000
opls_145-5    C    0.43669005    0.11045009    0.55790072    -0.12040000
opls_145-6    C    0.41054001    0.12801009    0.50267927    -0.18300000
opls_145-7    C    0.39068993    0.11887009    0.29993982    0.18300000
opls_145-8    C    0.39783000    0.09264011    0.14591980    -0.19650000
opls_142-9    C    0.35848001    0.16298005    0.23142010    0.10500000
opls_145-10    C    0.32822005    0.17793999    0.27260103    0.00980000
opls_145-11    C    0.30870011    0.16889010    0.48846042    -0.22170000
opls_145-12    C    0.28268996    0.18634992    0.56123086    -0.22040000
opls_145-13    C    0.27511008    0.21322009    0.41780978    0.03320000
opls_145-14    C    0.29272010    0.21963995    0.18114036    -0.22180000
opls_145-15    C    0.31982994    0.20318992    0.11618037    -0.21810000
opls_700-16    C    0.02695001    0.06496989    0.56567996    0.02750000
opls_700-17    C    0.02681996    0.03253000    0.57548982    0.02770000
opls_145-18    C    0.05259990    0.01599992    0.66331052    -0.10040000
opls_145-19    C    0.07984998    0.08050002    0.40851927    -0.22080000
opls_145-20    C    0.05529988    0.08332011    0.59855114    0.03190000
opls_145-21    C    0.05623995    0.10627006    0.79691951    -0.21700000
opls_145-22    C    0.08126994    0.12656002    0.80207966    -0.22280000
opls_145-23    C    0.10551001    0.12416993    0.60697903    0.19020000
opls_145-24    C    0.10468010    0.10090000    0.41223948    -0.22250000
opls_142-25    C    0.13918011    0.16411998    0.77992109    0.09130000
opls_145-26    C    0.16564996    0.18440011    0.72699998    0.05770000
opls_145-27    C    0.19093994    0.18342006    0.89416000    -0.20710000
opls_145-28    C    0.21711008    0.20124011    0.83331030    -0.20750000
opls_145-29    C    0.21919993    0.21887993    0.59520095    0.08450000
opls_145-30    C    0.19265996    0.22171991    0.44147070    -0.20720000
opls_145-31    C    0.16624002    0.20425002    0.50419945    -0.20790000
opls_700-32    C    0.24886991    0.23419003    0.50824956    0.01720000
opls_700-33    C    0.97202012    0.56528003    0.46498005    0.01610000
opls_700-34    C    0.97169002    0.53269994    0.48204980    0.03040000
opls_145-35    C    0.94383001    0.51599008    0.49006085    -0.18340000
opls_145-36    C    0.92470998    0.57572989    0.19343111    -0.14130000
opls_145-37    C    0.94389008    0.58379995    0.40660901    0.06460000
opls_145-38    C    0.93669005    0.61045009    0.55790072    -0.12030000
opls_145-39    C    0.91054001    0.62801009    0.50267927    -0.18300000
opls_145-40    C    0.89068993    0.61887009    0.29993982    0.18300000
opls_145-41    C    0.89783000    0.59264011    0.14591980    -0.19650000
opls_142-42    C    0.85848001    0.66298005    0.23142010    0.10500000
opls_145-43    C    0.82822005    0.67793999    0.27260103    0.00980000
opls_145-44    C    0.80870011    0.66889010    0.48846042    -0.22190000
opls_145-45    C    0.78268996    0.68634992    0.56123086    -0.22030000
opls_145-46    C    0.77511008    0.71322009    0.41780978    0.03320000
opls_145-47    C    0.79272010    0.71963995    0.18114036    -0.22180000
opls_145-48    C    0.81982994    0.70318992    0.11618037    -0.21810000
opls_700-49    C    0.52695001    0.56496989    0.56567996    0.02750000
opls_700-50    C    0.52681996    0.53253000    0.57548982    0.02770000
opls_145-51    C    0.55259990    0.51599992    0.66331052    -0.10040000
opls_145-52    C    0.57984998    0.58050002    0.40851927    -0.22080000
opls_145-53    C    0.55529988    0.58332011    0.59855114    0.03190000
opls_145-54    C    0.55623995    0.60627006    0.79691951    -0.21690000
opls_145-55    C    0.58126994    0.62656002    0.80207966    -0.22280000
opls_145-56    C    0.60551001    0.62416993    0.60697903    0.19020000
opls_145-57    C    0.60468010    0.60090000    0.41223948    -0.22240000
opls_142-58    C    0.63918011    0.66411998    0.77992109    0.09130000
opls_145-59    C    0.66564996    0.68440011    0.72699998    0.05770000
opls_145-60    C    0.69093994    0.68342006    0.89416000    -0.20710000
opls_145-61    C    0.71711008    0.70124011    0.83331030    -0.20740000
opls_145-62    C    0.71919993    0.71887993    0.59520095    0.08450000
opls_145-63    C    0.69265996    0.72171991    0.44147070    -0.20730000
opls_145-64    C    0.66624002    0.70425002    0.50419945    -0.20790000
opls_700-65    C    0.74886991    0.73419003    0.50824956    0.01720000
opls_700-66    C    0.52798011    0.06528003    0.53501995    0.01610000
opls_700-67    C    0.52830998    0.03269994    0.51795020    0.03040000
opls_145-68    C    0.55616999    0.01599008    0.50993915    -0.18330000
opls_145-69    C    0.57528998    0.07572989    0.80657112    -0.14130000
opls_145-70    C    0.55610992    0.08379995    0.59339099    0.06460000
opls_145-71    C    0.56330995    0.11045009    0.44209928    -0.12040000
opls_145-72    C    0.58945999    0.12801009    0.49732073    -0.18290000
opls_145-73    C    0.60931007    0.11887009    0.70006018    0.18300000
opls_145-74    C    0.60217000    0.09264011    0.85408020    -0.19640000
opls_142-75    C    0.64151999    0.16298005    0.76857990    0.10500000
opls_145-76    C    0.67177995    0.17793999    0.72739897    0.00980000
opls_145-77    C    0.69130012    0.16889010    0.51153958    -0.22190000
opls_145-78    C    0.71731004    0.18634992    0.43876914    -0.22040000
opls_145-79    C    0.72488992    0.21322009    0.58219022    0.03320000
opls_145-80    C    0.70728013    0.21963995    0.81885964    -0.22180000
opls_145-81    C    0.68017006    0.20318992    0.88381963    -0.21810000
opls_700-82    C    0.97304999    0.06496989    0.43432004    0.02760000
opls_700-83    C    0.97318004    0.03253000    0.42451018    0.02770000
opls_145-84    C    0.94740010    0.01599992    0.33668948    -0.10040000
opls_145-85    C    0.92015002    0.08050002    0.59148073    -0.22070000
opls_145-86    C    0.94470007    0.08332011    0.40145108    0.03190000
opls_145-87    C    0.94376005    0.10627006    0.20308049    -0.21700000
opls_145-88    C    0.91873006    0.12656002    0.19792034    -0.22280000
opls_145-89    C    0.89448999    0.12416993    0.39302097    0.19020000
opls_145-90    C    0.89531990    0.10090000    0.58776052    -0.22250000
opls_142-91    C    0.86082012    0.16411998    0.22007891    0.09130000
opls_145-92    C    0.83435004    0.18440011    0.27300002    0.05770000
opls_145-93    C    0.80906006    0.18342006    0.10584000    -0.20710000
opls_145-94    C    0.78288992    0.20124011    0.16668970    -0.20750000
opls_145-95    C    0.78080007    0.21887993    0.40479905    0.08450000
opls_145-96    C    0.80734004    0.22171991    0.55852930    -0.20730000
opls_145-97    C    0.83375998    0.20425002    0.49580055    -0.20790000
opls_700-98    C    0.75113009    0.23419003    0.49175044    0.01720000
opls_700-99    C    0.02798011    0.56528003    0.53501995    0.01610000
opls_700-100    C    0.02830998    0.53269994    0.51795020    0.03040000
opls_145-101    C    0.05616999    0.51599008    0.50993915    -0.18340000
opls_145-102    C    0.07528998    0.57572989    0.80657112    -0.14130000
opls_145-103    C    0.05610992    0.58379995    0.59339099    0.06460000
opls_145-104    C    0.06330995    0.61045009    0.44209928    -0.12040000
opls_145-105    C    0.08945999    0.62801009    0.49732073    -0.18300000
opls_145-106    C    0.10931007    0.61887009    0.70006018    0.18300000
opls_145-107    C    0.10217000    0.59264011    0.85408020    -0.19650000
opls_142-108    C    0.14151999    0.66298005    0.76857990    0.10510000
opls_145-109    C    0.17177995    0.67793999    0.72739897    0.00980000
opls_145-110    C    0.19130012    0.66889010    0.51153958    -0.22180000
opls_145-111    C    0.21731004    0.68634992    0.43876914    -0.22040000
opls_145-112    C    0.22488992    0.71322009    0.58219022    0.03320000
opls_145-113    C    0.20728013    0.71963995    0.81885964    -0.22180000
opls_145-114    C    0.18017006    0.70318992    0.88381963    -0.21810000
opls_700-115    C    0.47304999    0.56496989    0.43432004    0.02750000
opls_700-116    C    0.47318004    0.53253000    0.42451018    0.02770000
opls_145-117    C    0.44740010    0.51599992    0.33668948    -0.10040000
opls_145-118    C    0.42015002    0.58050002    0.59148073    -0.22080000
opls_145-119    C    0.44470007    0.58332011    0.40145108    0.03190000
opls_145-120    C    0.44376005    0.60627006    0.20308049    -0.21700000
opls_145-121    C    0.41873006    0.62656002    0.19792034    -0.22280000
opls_145-122    C    0.39448999    0.62416993    0.39302097    0.19020000
opls_145-123    C    0.39531990    0.60090000    0.58776052    -0.22250000
opls_142-124    C    0.36082012    0.66411998    0.22007891    0.09130000
opls_145-125    C    0.33435004    0.68440011    0.27300002    0.05770000
opls_145-126    C    0.30906006    0.68342006    0.10584000    -0.20700000
opls_145-127    C    0.28288992    0.70124011    0.16668970    -0.20750000
opls_145-128    C    0.28080007    0.71887993    0.40479905    0.08450000
opls_145-129    C    0.30734004    0.72171991    0.55852930    -0.20730000
opls_145-130    C    0.33375998    0.70425002    0.49580055    -0.20780000
opls_700-131    C    0.25113009    0.73419003    0.49175044    0.01720000
opls_700-132    C    0.52798011    0.93471997    0.53501995    0.01610000
opls_700-133    C    0.52830998    0.96730006    0.51795020    0.03040000
opls_145-134    C    0.55616999    0.98400992    0.50993915    -0.18340000
opls_145-135    C    0.57528998    0.92427011    0.80657112    -0.14130000
opls_145-136    C    0.55610992    0.91620005    0.59339099    0.06460000
opls_145-137    C    0.56330995    0.88954991    0.44209928    -0.12040000
opls_145-138    C    0.58945999    0.87198991    0.49732073    -0.18290000
opls_145-139    C    0.60931007    0.88112991    0.70006018    0.18300000
opls_145-140    C    0.60217000    0.90735989    0.85408020    -0.19650000
opls_142-141    C    0.64151999    0.83701995    0.76857990    0.10500000
opls_145-142    C    0.67177995    0.82206001    0.72739897    0.00980000
opls_145-143    C    0.69130012    0.83110990    0.51153958    -0.22190000
opls_145-144    C    0.71731004    0.81365008    0.43876914    -0.22040000
opls_145-145    C    0.72488992    0.78677991    0.58219022    0.03320000
opls_145-146    C    0.70728013    0.78036005    0.81885964    -0.22180000
opls_145-147    C    0.68017006    0.79681008    0.88381963    -0.21810000
opls_700-148    C    0.97304999    0.93503011    0.43432004    0.02750000
opls_700-149    C    0.97318004    0.96747000    0.42451018    0.02770000
opls_145-150    C    0.94740010    0.98400008    0.33668948    -0.10040000
opls_145-151    C    0.92015002    0.91949998    0.59148073    -0.22080000
opls_145-152    C    0.94470007    0.91667989    0.40145108    0.03190000
opls_145-153    C    0.94376005    0.89372994    0.20308049    -0.21700000
opls_145-154    C    0.91873006    0.87343998    0.19792034    -0.22280000
opls_145-155    C    0.89448999    0.87583007    0.39302097    0.19020000
opls_145-156    C    0.89531990    0.89910000    0.58776052    -0.22250000
opls_142-157    C    0.86082012    0.83588002    0.22007891    0.09130000
opls_145-158    C    0.83435004    0.81559989    0.27300002    0.05770000
opls_145-159    C    0.80906006    0.81657994    0.10584000    -0.20710000
opls_145-160    C    0.78288992    0.79875989    0.16668970    -0.20750000
opls_145-161    C    0.78080007    0.78112007    0.40479905    0.08450000
opls_145-162    C    0.80734004    0.77828009    0.55852930    -0.20720000
opls_145-163    C    0.83375998    0.79574998    0.49580055    -0.20790000
opls_700-164    C    0.75113009    0.76580997    0.49175044    0.01720000
opls_700-165    C    0.02798011    0.43471997    0.53501995    0.01610000
opls_700-166    C    0.02830998    0.46730006    0.51795020    0.03040000
opls_145-167    C    0.05616999    0.48400992    0.50993915    -0.18340000
opls_145-168    C    0.07528998    0.42427011    0.80657112    -0.14130000
opls_145-169    C    0.05610992    0.41620005    0.59339099    0.06460000
opls_145-170    C    0.06330995    0.38954991    0.44209928    -0.12040000
opls_145-171    C    0.08945999    0.37198991    0.49732073    -0.18300000
opls_145-172    C    0.10931007    0.38112991    0.70006018    0.18300000
opls_145-173    C    0.10217000    0.40735989    0.85408020    -0.19650000
opls_142-174    C    0.14151999    0.33701995    0.76857990    0.10500000
opls_145-175    C    0.17177995    0.32206001    0.72739897    0.00980000
opls_145-176    C    0.19130012    0.33110990    0.51153958    -0.22190000
opls_145-177    C    0.21731004    0.31365008    0.43876914    -0.22040000
opls_145-178    C    0.22488992    0.28677991    0.58219022    0.03320000
opls_145-179    C    0.20728013    0.28036005    0.81885964    -0.22180000
opls_145-180    C    0.18017006    0.29681008    0.88381963    -0.21810000
opls_700-181    C    0.47304999    0.43503011    0.43432004    0.02750000
opls_700-182    C    0.47318004    0.46747000    0.42451018    0.02770000
opls_145-183    C    0.44740010    0.48400008    0.33668948    -0.10040000
opls_145-184    C    0.42015002    0.41949998    0.59148073    -0.22080000
opls_145-185    C    0.44470007    0.41667989    0.40145108    0.03190000
opls_145-186    C    0.44376005    0.39372994    0.20308049    -0.21690000
opls_145-187    C    0.41873006    0.37343998    0.19792034    -0.22280000
opls_145-188    C    0.39448999    0.37583007    0.39302097    0.19030000
opls_145-189    C    0.39531990    0.39910000    0.58776052    -0.22250000
opls_142-190    C    0.36082012    0.33588002    0.22007891    0.09130000
opls_145-191    C    0.33435004    0.31559989    0.27300002    0.05770000
opls_145-192    C    0.30906006    0.31657994    0.10584000    -0.20710000
opls_145-193    C    0.28288992    0.29875989    0.16668970    -0.20750000
opls_145-194    C    0.28080007    0.28112007    0.40479905    0.08450000
opls_145-195    C    0.30734004    0.27828009    0.55852930    -0.20730000
opls_145-196    C    0.33375998    0.29574998    0.49580055    -0.20780000
opls_700-197    C    0.25113009    0.26580997    0.49175044    0.01720000
opls_700-198    C    0.47202012    0.93471997    0.46498005    0.01610000
opls_700-199    C    0.47169002    0.96730006    0.48204980    0.03040000
opls_145-200    C    0.44383001    0.98400992    0.49006085    -0.18340000
opls_145-201    C    0.42470998    0.92427011    0.19343111    -0.14130000
opls_145-202    C    0.44389008    0.91620005    0.40660901    0.06460000
opls_145-203    C    0.43669005    0.88954991    0.55790072    -0.12040000
opls_145-204    C    0.41054001    0.87198991    0.50267927    -0.18300000
opls_145-205    C    0.39068993    0.88112991    0.29993982    0.18300000
opls_145-206    C    0.39783000    0.90735989    0.14591980    -0.19650000
opls_142-207    C    0.35848001    0.83701995    0.23142010    0.10500000
opls_145-208    C    0.32822005    0.82206001    0.27260103    0.00980000
opls_145-209    C    0.30870011    0.83110990    0.48846042    -0.22190000
opls_145-210    C    0.28268996    0.81365008    0.56123086    -0.22040000
opls_145-211    C    0.27511008    0.78677991    0.41780978    0.03320000
opls_145-212    C    0.29272010    0.78036005    0.18114036    -0.22180000
opls_145-213    C    0.31982994    0.79681008    0.11618037    -0.21800000
opls_700-214    C    0.02695001    0.93503011    0.56567996    0.02750000
opls_700-215    C    0.02681996    0.96747000    0.57548982    0.02770000
opls_145-216    C    0.05259990    0.98400008    0.66331052    -0.10040000
opls_145-217    C    0.07984998    0.91949998    0.40851927    -0.22080000
opls_145-218    C    0.05529988    0.91667989    0.59855114    0.03190000
opls_145-219    C    0.05623995    0.89372994    0.79691951    -0.21690000
opls_145-220    C    0.08126994    0.87343998    0.80207966    -0.22280000
opls_145-221    C    0.10551001    0.87583007    0.60697903    0.19020000
opls_145-222    C    0.10468010    0.89910000    0.41223948    -0.22250000
opls_142-223    C    0.13918011    0.83588002    0.77992109    0.09130000
opls_145-224    C    0.16564996    0.81559989    0.72699998    0.05770000
opls_145-225    C    0.19093994    0.81657994    0.89416000    -0.20690000
opls_145-226    C    0.21711008    0.79875989    0.83331030    -0.20740000
opls_145-227    C    0.21919993    0.78112007    0.59520095    0.08450000
opls_145-228    C    0.19265996    0.77828009    0.44147070    -0.20730000
opls_145-229    C    0.16624002    0.79574998    0.50419945    -0.20790000
opls_700-230    C    0.24886991    0.76580997    0.50824956    0.01720000
opls_700-231    C    0.97202012    0.43471997    0.46498005    0.01610000
opls_700-232    C    0.97169002    0.46730006    0.48204980    0.03040000
opls_145-233    C    0.94383001    0.48400992    0.49006085    -0.18340000
opls_145-234    C    0.92470998    0.42427011    0.19343111    -0.14130000
opls_145-235    C    0.94389008    0.41620005    0.40660901    0.06460000
opls_145-236    C    0.93669005    0.38954991    0.55790072    -0.12030000
opls_145-237    C    0.91054001    0.37198991    0.50267927    -0.18300000
opls_145-238    C    0.89068993    0.38112991    0.29993982    0.18310000
opls_145-239    C    0.89783000    0.40735989    0.14591980    -0.19650000
opls_142-240    C    0.85848001    0.33701995    0.23142010    0.10500000
opls_145-241    C    0.82822005    0.32206001    0.27260103    0.00980000
opls_145-242    C    0.80870011    0.33110990    0.48846042    -0.22180000
opls_145-243    C    0.78268996    0.31365008    0.56123086    -0.22040000
opls_145-244    C    0.77511008    0.28677991    0.41780978    0.03320000
opls_145-245    C    0.79272010    0.28036005    0.18114036    -0.22180000
opls_145-246    C    0.81982994    0.29681008    0.11618037    -0.21810000
opls_700-247    C    0.52695001    0.43503011    0.56567996    0.02750000
opls_700-248    C    0.52681996    0.46747000    0.57548982    0.02770000
opls_145-249    C    0.55259990    0.48400008    0.66331052    -0.10040000
opls_145-250    C    0.57984998    0.41949998    0.40851927    -0.22080000
opls_145-251    C    0.55529988    0.41667989    0.59855114    0.03190000
opls_145-252    C    0.55623995    0.39372994    0.79691951    -0.21700000
opls_145-253    C    0.58126994    0.37343998    0.80207966    -0.22280000
opls_145-254    C    0.60551001    0.37583007    0.60697903    0.19020000
opls_145-255    C    0.60468010    0.39910000    0.41223948    -0.22250000
opls_142-256    C    0.63918011    0.33588002    0.77992109    0.09130000
opls_145-257    C    0.66564996    0.31559989    0.72699998    0.05770000
opls_145-258    C    0.69093994    0.31657994    0.89416000    -0.20710000
opls_145-259    C    0.71711008    0.29875989    0.83331030    -0.20750000
opls_145-260    C    0.71919993    0.28112007    0.59520095    0.08450000
opls_145-261    C    0.69265996    0.27828009    0.44147070    -0.20730000
opls_145-262    C    0.66624002    0.29574998    0.50419945    -0.20790000
opls_700-263    C    0.74886991    0.26580997    0.50824956    0.01720000
opls_700-264    C    0.00000012    0.01628993    0.50000000    -0.03450000
opls_145-265    C    0.00000012    0.08066996    0.50000000    -0.10500000
opls_700-266    C    0.00000012    0.48360989    0.50000000    0.00690000
opls_145-267    C    0.00000012    0.41911002    0.50000000    -0.18160000
opls_700-268    C    0.50000012    0.51628993    0.50000000    -0.03450000
opls_145-269    C    0.50000012    0.58066996    0.50000000    -0.10500000
opls_700-270    C    0.50000012    0.98360989    0.50000000    0.00690000
opls_145-271    C    0.50000012    0.91911002    0.50000000    -0.18150000
opls_700-272    C    0.00000012    0.98371007    0.50000000    -0.03450000
opls_145-273    C    0.00000012    0.91933004    0.50000000    -0.10500000
opls_700-274    C    0.00000012    0.51639011    0.50000000    0.00690000
opls_145-275    C    0.00000012    0.58088998    0.50000000    -0.18160000
opls_700-276    C    0.50000012    0.48371007    0.50000000    -0.03450000
opls_145-277    C    0.50000012    0.41933004    0.50000000    -0.10500000
opls_700-278    C    0.50000012    0.01639011    0.50000000    0.00690000
opls_145-279    C    0.50000012    0.08088998    0.50000000    -0.18150000
opls_750-280    N    0.36138006    0.13376004    0.27678042    -0.38060000
opls_750-281    N    0.13025003    0.14596005    0.58776943    -0.31790000
opls_750-282    N    0.86138006    0.63376004    0.27678042    -0.38050000
opls_750-283    N    0.63025003    0.64596005    0.58776943    -0.31780000
opls_750-284    N    0.63861994    0.13376004    0.72321958    -0.38060000
opls_750-285    N    0.86974997    0.14596005    0.41223057    -0.31790000
opls_750-286    N    0.13861994    0.63376004    0.72321958    -0.38060000
opls_750-287    N    0.36974997    0.64596005    0.41223057    -0.31760000
opls_750-288    N    0.63861994    0.86623996    0.72321958    -0.38060000
opls_750-289    N    0.86974997    0.85403995    0.41223057    -0.31790000
opls_750-290    N    0.13861994    0.36623996    0.72321958    -0.38060000
opls_750-291    N    0.36974997    0.35403995    0.41223057    -0.31790000
opls_750-292    N    0.36138006    0.86623996    0.27678042    -0.38060000
opls_750-293    N    0.13025003    0.85403995    0.58776943    -0.31790000
opls_750-294    N    0.86138006    0.36623996    0.27678042    -0.38050000
opls_750-295    N    0.63025003    0.35403995    0.58776943    -0.31790000
opls_146-296    H    0.42158994    0.02739004    0.50065979    0.22490000
opls_146-297    H    0.43020998    0.05601995    0.06670976    0.22460000
opls_146-298    H    0.45094996    0.11733997    0.72311036    0.09030000
opls_146-299    H    0.40488005    0.14791993    0.62681051    0.22470000
opls_146-300    H    0.38256005    0.08544009    0.98912021    0.10740000
opls_144-301    H    0.37867011    0.17698006    0.18387981    0.11000000
opls_146-302    H    0.31439014    0.14931007    0.61172904    0.10420000
opls_146-303    H    0.26993990    0.17878990    0.73775048    0.22510000
opls_146-304    H    0.33413003    0.21012989    0.94386911    0.22510000
opls_146-305    H    0.07294010    0.02766999    0.73456969    0.09580000
opls_146-306    H    0.07912995    0.06330002    0.25072108    0.22470000
opls_146-307    H    0.03722999    0.10894994    0.94322939    0.22520000
opls_146-308    H    0.08077991    0.14482996    0.95052047    0.22460000
opls_146-309    H    0.12289005    0.09923997    0.25780933    0.22520000
opls_144-310    H    0.12984001    0.16198010    0.98504113    0.10570000
opls_146-311    H    0.19064016    0.16853010    0.06954952    0.22460000
opls_146-312    H    0.23549005    0.20137002    0.97478100    0.09560000
opls_146-313    H    0.14642000    0.20592995    0.37711923    0.03840000
opls_146-314    H    0.21427011    0.26188998    0.94832044    0.08400000
opls_146-315    H    0.19221993    0.23719995    0.27127031    0.22470000
opls_146-316    H    0.92158994    0.52739004    0.50065979    0.22480000
opls_146-317    H    0.93020998    0.55601995    0.06670976    0.22450000
opls_146-318    H    0.95094996    0.61733997    0.72311036    0.09020000
opls_146-319    H    0.90488005    0.64791993    0.62681051    0.22480000
opls_146-320    H    0.88256005    0.58544009    0.98912021    0.10750000
opls_144-321    H    0.87867011    0.67698006    0.18387981    0.11000000
opls_146-322    H    0.81439014    0.64931007    0.61172904    0.10420000
opls_146-323    H    0.76993990    0.67878990    0.73775048    0.22510000
opls_146-324    H    0.83413003    0.71012989    0.94386911    0.22510000
opls_146-325    H    0.57294010    0.52766999    0.73456969    0.09580000
opls_146-326    H    0.57912995    0.56330002    0.25072108    0.22480000
opls_146-327    H    0.53722999    0.60894994    0.94322939    0.22510000
opls_146-328    H    0.58077991    0.64482996    0.95052047    0.22460000
opls_146-329    H    0.62289005    0.59923997    0.25780933    0.22510000
opls_144-330    H    0.62984001    0.66198010    0.98504113    0.10570000
opls_146-331    H    0.69064016    0.66853010    0.06954952    0.22470000
opls_146-332    H    0.73549005    0.70137002    0.97478100    0.09550000
opls_146-333    H    0.64642000    0.70592995    0.37711923    0.03840000
opls_146-334    H    0.71427011    0.76188998    0.94832044    0.08400000
opls_146-335    H    0.69221993    0.73719995    0.27127031    0.22460000
opls_146-336    H    0.57841006    0.02739004    0.49934021    0.22480000
opls_146-337    H    0.56979002    0.05601995    0.93329024    0.22450000
opls_146-338    H    0.54905004    0.11733997    0.27688964    0.09020000
opls_146-339    H    0.59511995    0.14791993    0.37318949    0.22480000
opls_146-340    H    0.61743995    0.08544009    0.01087979    0.10740000
opls_144-341    H    0.62133012    0.17698006    0.81612019    0.11000000
opls_146-342    H    0.68561009    0.14931007    0.38827096    0.10420000
opls_146-343    H    0.73006010    0.17878990    0.26224952    0.22510000
opls_146-344    H    0.66586997    0.21012989    0.05613089    0.22510000
opls_146-345    H    0.92705990    0.02766999    0.26543031    0.09580000
opls_146-346    H    0.92087000    0.06330002    0.74928114    0.22470000
opls_146-347    H    0.96277001    0.10894994    0.05677061    0.22510000
opls_146-348    H    0.91922009    0.14482996    0.04947953    0.22460000
opls_146-349    H    0.87710995    0.09923997    0.74219067    0.22510000
opls_144-350    H    0.87015995    0.16198010    0.01496110    0.10570000
opls_146-351    H    0.80936008    0.16853010    0.93045048    0.22460000
opls_146-352    H    0.76450995    0.20137002    0.02521900    0.09550000
opls_146-353    H    0.85358000    0.20592995    0.62288077    0.03840000
opls_146-354    H    0.78573013    0.26188998    0.05167956    0.08400000
opls_146-355    H    0.80778007    0.23719995    0.72872969    0.22460000
opls_146-356    H    0.07841006    0.52739004    0.49934021    0.22480000
opls_146-357    H    0.06979002    0.55601995    0.93329024    0.22450000
opls_146-358    H    0.04905004    0.61733997    0.27688964    0.09020000
opls_146-359    H    0.09511995    0.64791993    0.37318949    0.22470000
opls_146-360    H    0.11743995    0.58544009    0.01087979    0.10740000
opls_144-361    H    0.12133012    0.67698006    0.81612019    0.11000000
opls_146-362    H    0.18561009    0.64931007    0.38827096    0.10420000
opls_146-363    H    0.23006010    0.67878990    0.26224952    0.22510000
opls_146-364    H    0.16586997    0.71012989    0.05613089    0.22520000
opls_146-365    H    0.42705990    0.52766999    0.26543031    0.09580000
opls_146-366    H    0.42087000    0.56330002    0.74928114    0.22480000
opls_146-367    H    0.46277001    0.60894994    0.05677061    0.22520000
opls_146-368    H    0.41922009    0.64482996    0.04947953    0.22460000
opls_146-369    H    0.37710995    0.59923997    0.74219067    0.22510000
opls_144-370    H    0.37015995    0.66198010    0.01496110    0.10570000
opls_146-371    H    0.30936008    0.66853010    0.93045048    0.22470000
opls_146-372    H    0.26450995    0.70137002    0.02521900    0.09550000
opls_146-373    H    0.35358000    0.70592995    0.62288077    0.03840000
opls_146-374    H    0.28573013    0.76188998    0.05167956    0.08400000
opls_146-375    H    0.30778007    0.73719995    0.72872969    0.22470000
opls_146-376    H    0.57841006    0.97260996    0.49934021    0.22480000
opls_146-377    H    0.56979002    0.94398005    0.93329024    0.22450000
opls_146-378    H    0.54905004    0.88266003    0.27688964    0.09020000
opls_146-379    H    0.59511995    0.85208007    0.37318949    0.22470000
opls_146-380    H    0.61743995    0.91455991    0.01087979    0.10740000
opls_144-381    H    0.62133012    0.82301994    0.81612019    0.11000000
opls_146-382    H    0.68561009    0.85068993    0.38827096    0.10420000
opls_146-383    H    0.73006010    0.82121010    0.26224952    0.22510000
opls_146-384    H    0.66586997    0.78987011    0.05613089    0.22510000
opls_146-385    H    0.92705990    0.97233001    0.26543031    0.09580000
opls_146-386    H    0.92087000    0.93669998    0.74928114    0.22470000
opls_146-387    H    0.96277001    0.89105006    0.05677061    0.22510000
opls_146-388    H    0.91922009    0.85517004    0.04947953    0.22470000
opls_146-389    H    0.87710995    0.90076003    0.74219067    0.22510000
opls_144-390    H    0.87015995    0.83801990    0.01496110    0.10570000
opls_146-391    H    0.80936008    0.83146990    0.93045048    0.22460000
opls_146-392    H    0.76450995    0.79862998    0.02521900    0.09550000
opls_146-393    H    0.85358000    0.79407005    0.62288077    0.03840000
opls_146-394    H    0.78573013    0.73811002    0.05167956    0.08400000
opls_146-395    H    0.80778007    0.76280005    0.72872969    0.22460000
opls_146-396    H    0.07841006    0.47260996    0.49934021    0.22480000
opls_146-397    H    0.06979002    0.44398005    0.93329024    0.22450000
opls_146-398    H    0.04905004    0.38266003    0.27688964    0.09020000
opls_146-399    H    0.09511995    0.35208007    0.37318949    0.22470000
opls_146-400    H    0.11743995    0.41455991    0.01087979    0.10740000
opls_144-401    H    0.12133012    0.32301994    0.81612019    0.11000000
opls_146-402    H    0.18561009    0.35068993    0.38827096    0.10420000
opls_146-403    H    0.23006010    0.32121010    0.26224952    0.22510000
opls_146-404    H    0.16586997    0.28987011    0.05613089    0.22510000
opls_146-405    H    0.42705990    0.47233001    0.26543031    0.09590000
opls_146-406    H    0.42087000    0.43669998    0.74928114    0.22470000
opls_146-407    H    0.46277001    0.39105006    0.05677061    0.22510000
opls_146-408    H    0.41922009    0.35517004    0.04947953    0.22460000
opls_146-409    H    0.37710995    0.40076003    0.74219067    0.22510000
opls_144-410    H    0.37015995    0.33801990    0.01496110    0.10570000
opls_146-411    H    0.30936008    0.33146990    0.93045048    0.22460000
opls_146-412    H    0.26450995    0.29862998    0.02521900    0.09550000
opls_146-413    H    0.35358000    0.29407005    0.62288077    0.03840000
opls_146-414    H    0.28573013    0.23811002    0.05167956    0.08400000
opls_146-415    H    0.30778007    0.26280005    0.72872969    0.22470000
opls_146-416    H    0.42158994    0.97260996    0.50065979    0.22480000
opls_146-417    H    0.43020998    0.94398005    0.06670976    0.22450000
opls_146-418    H    0.45094996    0.88266003    0.72311036    0.09020000
opls_146-419    H    0.40488005    0.85208007    0.62681051    0.22470000
opls_146-420    H    0.38256005    0.91455991    0.98912021    0.10740000
opls_144-421    H    0.37867011    0.82301994    0.18387981    0.11000000
opls_146-422    H    0.31439014    0.85068993    0.61172904    0.10420000
opls_146-423    H    0.26993990    0.82121010    0.73775048    0.22510000
opls_146-424    H    0.33413003    0.78987011    0.94386911    0.22510000
opls_146-425    H    0.07294010    0.97233001    0.73456969    0.09580000
opls_146-426    H    0.07912995    0.93669998    0.25072108    0.22470000
opls_146-427    H    0.03722999    0.89105006    0.94322939    0.22510000
opls_146-428    H    0.08077991    0.85517004    0.95052047    0.22470000
opls_146-429    H    0.12289005    0.90076003    0.25780933    0.22510000
opls_144-430    H    0.12984001    0.83801990    0.98504113    0.10570000
opls_146-431    H    0.19064016    0.83146990    0.06954952    0.22460000
opls_146-432    H    0.23549005    0.79862998    0.97478100    0.09550000
opls_146-433    H    0.14642000    0.79407005    0.37711923    0.03840000
opls_146-434    H    0.21427011    0.73811002    0.94832044    0.08400000
opls_146-435    H    0.19221993    0.76280005    0.27127031    0.22460000
opls_146-436    H    0.92158994    0.47260996    0.50065979    0.22490000
opls_146-437    H    0.93020998    0.44398005    0.06670976    0.22460000
opls_146-438    H    0.95094996    0.38266003    0.72311036    0.09020000
opls_146-439    H    0.90488005    0.35208007    0.62681051    0.22470000
opls_146-440    H    0.88256005    0.41455991    0.98912021    0.10740000
opls_144-441    H    0.87867011    0.32301994    0.18387981    0.11000000
opls_146-442    H    0.81439014    0.35068993    0.61172904    0.10420000
opls_146-443    H    0.76993990    0.32121010    0.73775048    0.22510000
opls_146-444    H    0.83413003    0.28987011    0.94386911    0.22510000
opls_146-445    H    0.57294010    0.47233001    0.73456969    0.09590000
opls_146-446    H    0.57912995    0.43669998    0.25072108    0.22470000
opls_146-447    H    0.53722999    0.39105006    0.94322939    0.22510000
opls_146-448    H    0.58077991    0.35517004    0.95052047    0.22460000
opls_146-449    H    0.62289005    0.40076003    0.25780933    0.22510000
opls_144-450    H    0.62984001    0.33801990    0.98504113    0.10580000
opls_146-451    H    0.69064016    0.33146990    0.06954952    0.22460000
opls_146-452    H    0.73549005    0.29862998    0.97478100    0.09550000
opls_146-453    H    0.64642000    0.29407005    0.37711923    0.03840000
opls_146-454    H    0.71427011    0.23811002    0.94832044    0.08400000
opls_146-455    H    0.69221993    0.26280005    0.27127031    0.22470000
opls_146-456    H    0.00000012    0.10562004    0.50000000    0.09700000
opls_146-457    H    0.50000012    0.60562004    0.50000000    0.09700000
opls_146-458    H    0.00000012    0.89437996    0.50000000    0.09700000
opls_146-459    H    0.50000012    0.39437996    0.50000000    0.09700000
opls_146-460    H    0.50000012    0.10571999    0.50000000    0.10440000
opls_146-461    H    0.00000012    0.60571999    0.50000000    0.10440000
opls_146-462    H    0.50000012    0.89428001    0.50000000    0.10440000
opls_146-463    H    0.00000012    0.39428001    0.50000000    0.10440000
