#======================================================================
# Crystal Data Generated By AuToFF
#----------------------------------------------------------------------

data_AuToFF_phase_1

_cell_length_a                         30.5300
_cell_length_b                         32.4400
_cell_length_c                         12.7400
_cell_angle_alpha                      90.59
_cell_angle_beta                       91.95
_cell_angle_gamma                      117.74
_symmetry_space_group_name_H-M_alt     'P 1'
_symmetry_space_group_IT_number        1

loop_
_space_group_symop_operation_xyz
   'x, y, z'

loop_
   _atom_site_label
   _atom_site_type_symbol
   _atom_site_fract_x
   _atom_site_fract_y
   _atom_site_fract_z
   _atom_site_charge
opls_515-0    C    0.45156005    0.50706037    0.83020038    -0.05210000
opls_515-1    C    0.49386995    0.94326027    0.81504998    -0.03200000
opls_515-2    C    0.05510007    0.54855008    0.81474983    -0.05690000
opls_137-3    C    0.44884007    0.46306038    0.88062050    0.00130000
opls_137-4    C    0.53902990    0.98454019    0.87181014    0.00070000
opls_137-5    C    0.01372023    0.55275036    0.86963054    -0.00120000
opls_137-6    C    0.52411014    0.51221020    0.87879055    0.00120000
opls_137-7    C    0.48775015    0.01125004    0.87251023    -0.00130000
opls_137-8    C    0.98557009    0.47448027    0.86734014    -0.00130000
opls_515-9    C    0.50535007    0.54246037    0.83063017    -0.05210000
opls_515-10    C    0.45801023    0.96152036    0.81762009    -0.03970000
opls_515-11    C    0.03589006    0.49424009    0.81478048    -0.06070000
opls_136-12    C    0.48788004    0.48335020    0.96125028    -0.19830000
opls_136-13    C    0.51742023    0.00264020    0.95392023    -0.20150000
opls_136-14    C    0.99401012    0.51221015    0.94997038    -0.16970000
opls_515-15    C    0.46525996    0.43920028    0.80135004    -0.05300000
opls_515-16    C    0.56235026    0.02661021    0.79038993    -0.05650000
opls_515-17    C    0.97283007    0.53548016    0.78569992    -0.03950000
opls_515-18    C    0.51918008    0.47540033    0.79829984    -0.04890000
opls_515-19    C    0.52564010    0.04409025    0.78861025    -0.05890000
opls_515-20    C    0.95388011    0.48097019    0.78259001    -0.05250000
opls_145-21    C    0.47822001    0.40235019    0.83354993    0.03600000
opls_145-22    C    0.59907011    0.07621022    0.83129018    0.03900000
opls_145-23    C    0.92336007    0.52385025    0.82409999    0.03910000
opls_700-24    C    0.45991020    0.35396014    0.80275020    0.10110000
opls_700-25    C    0.64748006    0.10723028    0.80251998    0.09960000
opls_145-26    C    0.89404020    0.54303026    0.79454014    0.11670000
opls_145-27    C    0.49390028    0.33825032    0.78639057    -0.22040000
opls_145-28    C    0.66251026    0.15678032    0.78695001    -0.21380000
opls_145-29    C    0.84434015    0.50996012    0.77671041    -0.21570000
opls_916-30    C    0.54438016    0.37274035    0.78137999    0.19090000
opls_916-31    C    0.62775023    0.17239021    0.78117020    0.19280000
opls_916-32    C    0.82691991    0.45924017    0.77059038    0.17250000
opls_145-33    C    0.56040003    0.42295031    0.79272982    0.05500000
opls_700-34    C    0.57757005    0.13813029    0.79279032    0.05160000
opls_700-35    C    0.85965013    0.44130008    0.78367038    0.05190000
opls_145-36    C    0.52654997    0.43519019    0.82911057    0.00430000
opls_145-37    C    0.56516010    0.09184010    0.82770019    0.04740000
opls_700-38    C    0.90619019    0.47403019    0.81969991    0.03600000
opls_145-39    C    0.41323002    0.55893011    0.87454997    0.05350000
opls_700-40    C    0.44295997    0.85264010    0.86116039    0.05160000
opls_700-41    C    0.14486020    0.58683016    0.86714999    0.04930000
opls_145-42    C    0.44662991    0.54336015    0.89315993    0.00430000
opls_145-43    C    0.45869022    0.90141028    0.88187060    0.01460000
opls_700-44    C    0.09573013    0.55380018    0.88391035    0.04080000
opls_145-45    C    0.49571000    0.57529014    0.89553047    0.04660000
opls_145-46    C    0.42580005    0.91873037    0.88641053    0.04870000
opls_145-47    C    0.07782011    0.50345017    0.88529008    0.00550000
opls_145-48    C    0.51478990    0.62522007    0.88106994    0.11360000
opls_700-49    C    0.37597016    0.88743022    0.87331010    0.11130000
opls_145-50    C    0.10894012    0.48472017    0.87179050    0.11650000
opls_145-51    C    0.48203012    0.64250024    0.87007054    -0.24280000
opls_145-52    C    0.35925015    0.83771016    0.85884014    -0.24340000
opls_145-53    C    0.15887007    0.51755026    0.85970994    -0.19230000
opls_916-54    C    0.43129004    0.60959032    0.86391044    0.17780000
opls_916-55    C    0.39228014    0.82011025    0.85078015    0.15810000
opls_916-56    C    0.17709014    0.56841035    0.85534051    0.17780000
opls_148-57    C    0.56860025    0.65910039    0.87102049    -0.46370000
opls_148-58    C    0.34127991    0.90652022    0.86915046    -0.46660000
opls_148-59    C    0.08954015    0.43094020    0.86501046    -0.46370000
opls_148-60    C    0.40648001    0.32093029    0.78446004    -0.46370000
opls_148-61    C    0.68139004    0.08784009    0.78485998    -0.46360000
opls_148-62    C    0.91537017    0.59676038    0.77928053    -0.46370000
opls_145-63    C    0.37854005    0.66351032    0.69228007    -0.20440000
opls_145-64    C    0.33463010    0.71057008    0.68611997    -0.16010000
opls_700-65    C    0.28726002    0.61945027    0.69354038    -0.12080000
opls_280-66    C    0.37956018    0.70891027    0.66367016    0.21410000
opls_280-67    C    0.28839011    0.66545035    0.66658050    0.33050000
opls_280-68    C    0.33211987    0.61794008    0.67302032    0.33430000
opls_142-69    C    0.41142001    0.66552038    0.76230017    0.04390000
opls_142-70    C    0.33471006    0.74326011    0.75354009    0.11500000
opls_142-71    C    0.25490016    0.58754036    0.76253039    0.04510000
opls_145-72    C    0.61830017    0.32633007    0.86943017    -0.20010000
opls_145-73    C    0.67676026    0.29426025    0.86040060    -0.14710000
opls_700-74    C    0.70870991    0.38519006    0.86203019    -0.10940000
opls_231-75    C    0.62761018    0.28595007    0.88547001    0.19540000
opls_280-76    C    0.71789002    0.34402007    0.87360003    0.33450000
opls_280-77    C    0.65963031    0.37580035    0.88775020    0.33470000
opls_142-78    C    0.57836020    0.31866028    0.81682022    0.04750000
opls_142-79    C    0.68311004    0.26113033    0.80784015    0.07960000
opls_142-80    C    0.73955010    0.42595022    0.81004018    0.04550000
opls_148-81    C    0.61041019    0.46235031    0.76011035    -0.46370000
opls_148-82    C    0.53804024    0.14870023    0.76092043    -0.45740000
opls_148-83    C    0.84788008    0.38999028    0.75962005    -0.46370000
opls_148-84    C    0.36105006    0.52158019    0.85114001    -0.46370000
opls_148-85    C    0.48012006    0.83793021    0.83453995    -0.46370000
opls_148-86    C    0.16058997    0.63954010    0.84790046    -0.46370000
opls_515-87    C    0.78473997    0.17387994    0.49793039    -0.05210000
opls_515-88    C    0.82789999    0.61065006    0.49137036    -0.05200000
opls_515-89    C    0.38708016    0.21458000    0.48989005    -0.05300000
opls_137-90    C    0.78206005    0.12987001    0.54815016    0.00120000
opls_137-91    C    0.87145987    0.65145008    0.54420031    0.00170000
opls_137-92    C    0.34623014    0.21774006    0.54090026    0.00060000
opls_137-93    C    0.85731988    0.17905996    0.54629977    0.00120000
opls_137-94    C    0.82187005    0.67701011    0.54452010    0.00060000
opls_137-95    C    0.31927994    0.14232008    0.53840007    0.00060000
opls_515-96    C    0.83851011    0.20930022    0.49826040    -0.05210000
opls_515-97    C    0.79212985    0.62855008    0.49375975    -0.05210000
opls_515-98    C    0.36824989    0.16072003    0.48987040    -0.05300000
opls_136-99    C    0.82111015    0.15015003    0.62875008    -0.19830000
opls_136-100    C    0.85059006    0.66898005    0.62616032    -0.22690000
opls_136-101    C    0.32714015    0.17855010    0.62118038    -0.19870000
opls_515-102    C    0.79849020    0.10608026    0.46872019    -0.05300000
opls_515-103    C    0.89535999    0.69267019    0.46723988    -0.04790000
opls_515-104    C    0.30608007    0.20178996    0.46168007    -0.05200000
opls_515-105    C    0.85240002    0.14228994    0.46573993    -0.04890000
opls_515-106    C    0.85878011    0.70984016    0.46532035    -0.05290000
opls_515-107    C    0.28751994    0.14773010    0.45825980    -0.05780000
opls_145-108    C    0.81141024    0.06919020    0.50074016    0.03600000
opls_145-109    C    0.93163001    0.74233036    0.50170031    -0.00360000
opls_145-110    C    0.25668006    0.18983009    0.49385011    0.00160000
opls_700-111    C    0.79312997    0.02083997    0.46954992    0.10060000
opls_700-112    C    0.97986993    0.77274031    0.47027986    0.11870000
opls_145-113    C    0.22791990    0.20945012    0.46220023    0.11850000
opls_145-114    C    0.82713007    0.00520004    0.45272985    -0.22050000
opls_145-115    C    0.99487000    0.82203033    0.45107983    -0.21380000
opls_145-116    C    0.17841022    0.17659018    0.44162045    -0.21580000
opls_916-117    C    0.87760986    0.03971001    0.44777977    0.19090000
opls_916-118    C    0.95996016    0.83742031    0.44497001    0.19280000
opls_916-119    C    0.16120012    0.12594013    0.43503999    0.15880000
opls_145-120    C    0.89363012    0.08989002    0.45990040    0.05500000
opls_700-121    C    0.90999997    0.80314006    0.45985011    0.05330000
opls_700-122    C    0.19405015    0.10829013    0.45019038    0.05270000
opls_145-123    C    0.85974013    0.10205009    0.49641001    0.00430000
opls_145-124    C    0.89839023    0.75743031    0.49775046    0.01380000
opls_700-125    C    0.24013005    0.14127011    0.48873031    0.00160000
opls_145-126    C    0.74636993    0.22566998    0.54263043    0.05510000
opls_700-127    C    0.77597998    0.51988023    0.52893048    0.05160000
opls_700-128    C    0.47723007    0.25278016    0.53324020    0.05200000
opls_145-129    C    0.77981998    0.21015004    0.56106988    0.00430000
opls_145-130    C    0.79130006    0.56849014    0.55155000    0.04740000
opls_700-131    C    0.42829991    0.21942000    0.55241980    0.00110000
opls_145-132    C    0.82890012    0.24211018    0.56326991    0.04670000
opls_145-133    C    0.75914008    0.58535011    0.55646002    0.01370000
opls_145-134    C    0.41092000    0.17025995    0.55416019    0.00490000
opls_145-135    C    0.84792015    0.29202004    0.54866010    0.11360000
opls_700-136    C    0.70937006    0.55462010    0.53985052    0.11130000
opls_145-137    C    0.44166001    0.15117997    0.53790035    0.09940000
opls_145-138    C    0.81512993    0.30925013    0.53739984    -0.24280000
opls_145-139    C    0.69241988    0.50500004    0.52314989    -0.24280000
opls_145-140    C    0.49152022    0.18382016    0.52390026    -0.19230000
opls_916-141    C    0.76438000    0.27631018    0.53149981    0.17810000
opls_916-142    C    0.72543003    0.48733017    0.51629049    0.15470000
opls_916-143    C    0.50964029    0.23466028    0.51991976    0.17750000
opls_148-144    C    0.90173019    0.32598021    0.53882986    -0.46370000
opls_148-145    C    0.67511003    0.57424004    0.53512044    -0.46370000
opls_148-146    C    0.42192991    0.09733008    0.53102052    -0.46370000
opls_148-147    C    0.73970010    0.98781011    0.45125976    -0.46370000
opls_148-148    C    0.01356982    0.75297008    0.45413002    -0.46670000
opls_148-149    C    0.24957995    0.26329017    0.44818049    -0.46370000
opls_145-150    C    0.71181996    0.33023004    0.35977987    -0.12850000
opls_145-151    C    0.66816003    0.37752013    0.35174031    -0.16700000
opls_700-152    C    0.62051013    0.28633013    0.35920000    -0.12070000
opls_280-153    C    0.71309002    0.37566026    0.33037009    0.21420000
opls_280-154    C    0.62186003    0.33244013    0.33214977    0.34220000
opls_280-155    C    0.66542015    0.28471021    0.34006047    0.33820000
opls_142-156    C    0.74449005    0.33217029    0.43000033    0.05490000
opls_142-157    C    0.66823998    0.41051021    0.41819006    0.11190000
opls_142-158    C    0.58760019    0.25416018    0.42695014    0.04550000
opls_145-159    C    0.95180005    0.99262026    0.53142045    -0.19930000
opls_145-160    C    0.00953996    0.95977038    0.51921025    -0.13010000
opls_700-161    C    0.04234996    0.05086021    0.52233980    -0.11460000
opls_231-162    C    0.96068999    0.95190017    0.54580005    0.16430000
opls_280-163    C    0.05103019    0.00931018    0.53215039    0.32390000
opls_280-164    C    0.99353000    0.04188994    0.54929025    0.33770000
opls_142-165    C    0.91160009    0.98542021    0.48077011    0.04640000
opls_142-166    C    0.01535006    0.92633037    0.46664037    0.08050000
opls_142-167    C    0.07363005    0.09199012    0.47212003    0.04550000
opls_148-168    C    0.94374995    0.12940012    0.42824030    -0.46370000
opls_148-169    C    0.86989997    0.81299011    0.42869995    -0.45690000
opls_148-170    C    0.18284018    0.05715003    0.42604026    -0.46370000
opls_148-171    C    0.69413024    0.18826023    0.52005019    -0.46360000
opls_148-172    C    0.81345006    0.50540001    0.50357035    -0.46370000
opls_148-173    C    0.49247022    0.30536025    0.51365044    -0.46370000
opls_515-174    C    0.11790002    0.84052019    0.16407010    -0.05210000
opls_515-175    C    0.16117989    0.27710004    0.15829972    -0.05200000
opls_515-176    C    0.72069997    0.88147007    0.15694041    -0.05290000
opls_137-177    C    0.11505007    0.79652008    0.21479980    0.00130000
opls_137-178    C    0.20481009    0.31778022    0.21126010    0.00170000
opls_137-179    C    0.67982006    0.88463003    0.20780997    0.00060000
opls_137-180    C    0.19032003    0.84573003    0.21405022    0.00120000
opls_137-181    C    0.15523989    0.34336007    0.21263984    0.00060000
opls_137-182    C    0.65292002    0.80921002    0.20552036    0.00060000
opls_515-183    C    0.17167981    0.87594008    0.16514026    -0.05210000
opls_515-184    C    0.12542987    0.29501009    0.16148034    -0.05210000
opls_515-185    C    0.70189981    0.82761011    0.15708027    -0.05300000
opls_136-186    C    0.15382009    0.81683030    0.29602988    -0.19840000
opls_136-187    C    0.18403995    0.33515023    0.29377012    -0.22690000
opls_136-188    C    0.66072997    0.84548003    0.28818989    -0.19870000
opls_515-189    C    0.13175992    0.77272013    0.13599999    -0.05300000
opls_515-190    C    0.22863993    0.35914015    0.13462968    -0.04800000
opls_515-191    C    0.63968996    0.86863025    0.12851986    -0.05200000
opls_515-192    C    0.18567003    0.80896019    0.13385024    -0.04890000
opls_515-193    C    0.19208002    0.37632007    0.13346995    -0.05280000
opls_515-194    C    0.62116990    0.81457027    0.12524966    -0.05780000
opls_145-195    C    0.14462003    0.73585004    0.16863989    0.03600000
opls_145-196    C    0.26497998    0.40872992    0.16929990    -0.00460000
opls_145-197    C    0.59026995    0.85665023    0.16056026    0.00160000
opls_700-198    C    0.12654995    0.68757001    0.13711965    0.10040000
opls_700-199    C    0.31314005    0.43916006    0.13732001    0.11900000
opls_145-200    C    0.56147004    0.87620015    0.12869037    0.10940000
opls_145-201    C    0.16067010    0.67203016    0.12084016    -0.22010000
opls_145-202    C    0.32808009    0.48845016    0.11817969    -0.21380000
opls_145-203    C    0.51196008    0.84329006    0.10827010    -0.21580000
opls_916-204    C    0.21114986    0.70661001    0.11689031    0.19010000
opls_916-205    C    0.29315013    0.50383025    0.11275031    0.19280000
opls_916-206    C    0.49480001    0.79263027    0.10193006    0.16140000
opls_145-207    C    0.22704998    0.75674019    0.12946038    0.05510000
opls_700-208    C    0.24325006    0.46956008    0.12839965    0.05330000
opls_700-209    C    0.52770004    0.77505027    0.11707967    0.05390000
opls_145-210    C    0.19295985    0.76875999    0.16518033    0.00430000
opls_145-211    C    0.23172998    0.42384009    0.16605013    0.01400000
opls_700-212    C    0.57376995    0.80808999    0.15558031    0.00160000
opls_145-213    C    0.07943979    0.89238001    0.20736997    0.05400000
opls_700-214    C    0.10927011    0.18626013    0.19486983    0.05160000
opls_700-215    C    0.81083999    0.91972016    0.20029999    0.05200000
opls_145-216    C    0.11282012    0.87685014    0.22662029    -0.00170000
opls_145-217    C    0.12462991    0.23481005    0.21820043    0.04740000
opls_700-218    C    0.76192003    0.88636014    0.21956996    0.00110000
opls_145-219    C    0.16187991    0.90880007    0.22944969    0.04150000
opls_145-220    C    0.09249019    0.25168019    0.22386003    0.01380000
opls_145-221    C    0.74455996    0.83721007    0.22146042    0.00490000
opls_145-222    C    0.18098002    0.95871032    0.21463009    0.11360000
opls_700-223    C    0.04268992    0.22100015    0.20736997    0.11110000
opls_145-224    C    0.77532014    0.81813023    0.20537029    0.09930000
opls_145-225    C    0.14822983    0.97597021    0.20295968    -0.24280000
opls_145-226    C    0.02570987    0.17139989    0.19016018    -0.24280000
opls_145-227    C    0.82517015    0.85078030    0.19130027    -0.19230000
opls_916-228    C    0.09748993    0.94304030    0.19647036    0.17820000
opls_916-229    C    0.05869999    0.15373995    0.18248991    0.15200000
opls_916-230    C    0.84326008    0.90161008    0.18701020    0.17750000
opls_148-231    C    0.23479997    0.99256029    0.20463013    -0.46370000
opls_148-232    C    0.00846024    0.24066021    0.20314982    -0.46670000
opls_148-233    C    0.75559992    0.76428007    0.19855018    -0.46370000
opls_148-234    C    0.07320004    0.65451000    0.11783004    -0.46370000
opls_148-235    C    0.34680977    0.41939993    0.12040016    -0.46360000
opls_148-236    C    0.58309995    0.93001001    0.11419998    -0.46370000
opls_145-237    C    0.04493018    0.99690033    0.02441019    -0.16060000
opls_145-238    C    0.00123985    0.04417990    0.01711000    -0.10300000
opls_700-239    C    0.95362989    0.95302012    0.02482977    -0.12070000
opls_280-240    C    0.04614027    0.04233021    0.99524006    0.27360000
opls_280-241    C    0.95491000    0.99910015    0.99783061    0.34220000
opls_280-242    C    0.99846984    0.95139020    0.00497994    0.33460000
opls_142-243    C    0.07766998    0.99883029    0.09443029    0.05490000
opls_142-244    C    0.00143001    0.07712995    0.08388033    0.11090000
opls_142-245    C    0.92096000    0.92097015    0.09315034    0.04550000
opls_145-246    C    0.28550013    0.65938021    0.19988984    -0.18920000
opls_145-247    C    0.34301018    0.62629025    0.18628969    -0.15530000
opls_700-248    C    0.37605007    0.71741999    0.18994017    -0.14770000
opls_231-249    C    0.29427004    0.61855003    0.21354971    0.31810000
opls_280-250    C    0.38461992    0.67578006    0.19903026    0.32390000
opls_280-251    C    0.32736015    0.70857031    0.21772035    0.33780000
opls_142-252    C    0.24523989    0.65235999    0.14978007    0.04680000
opls_142-253    C    0.34862018    0.59276029    0.13357995    0.08020000
opls_142-254    C    0.40729996    0.75858016    0.13976991    0.04560000
opls_148-255    C    0.27733016    0.79639030    0.09920987    -0.46370000
opls_148-256    C    0.20304982    0.47941009    0.09814993    -0.45990000
opls_148-257    C    0.51655997    0.72393008    0.09296020    -0.46370000
opls_148-258    C    0.02730979    0.85500008    0.18361035    -0.46370000
opls_148-259    C    0.14669978    0.17186990    0.16834996    -0.46370000
opls_148-260    C    0.82604981    0.97228008    0.18049966    -0.46370000
opls_281-261    O    0.41808029    0.74625039    0.64561022    -0.47990000
opls_281-262    O    0.25071995    0.66629023    0.65059016    -0.36640000
opls_281-263    O    0.33117011    0.57918023    0.66093033    -0.42900000
opls_272-264    O    0.59577029    0.24675028    0.91960044    -0.50390000
opls_281-265    O    0.75838009    0.35108025    0.89659041    -0.36640000
opls_281-266    O    0.65312001    0.40795010    0.92340022    -0.46060000
opls_281-267    O    0.75174016    0.41293026    0.31269987    -0.46600000
opls_281-268    O    0.58428003    0.33342011    0.31590014    -0.36640000
opls_281-269    O    0.66442998    0.24589017    0.32855978    -0.41820000
opls_272-270    O    0.92893989    0.91295015    0.58113028    -0.50370000
opls_281-271    O    0.09124009    0.01582996    0.55586993    -0.36660000
opls_281-272    O    0.98759011    0.07417995    0.58634044    -0.38330000
opls_281-273    O    0.08476030    0.07960020    0.97741034    -0.46610000
opls_281-274    O    0.91729011    0.00007017    0.98207049    -0.36620000
opls_281-275    O    0.99744002    0.91256024    0.99320031    -0.41810000
opls_272-276    O    0.26257005    0.57966024    0.24925002    -0.50390000
opls_281-277    O    0.42483001    0.68217009    0.22223043    -0.36660000
opls_281-278    O    0.32162989    0.74088027    0.25538970    -0.38330000
opls_238-279    N    0.39865000    0.62670010    0.83669048    -0.35550000
opls_238-280    N    0.37524991    0.77043025    0.82294025    -0.30510000
opls_238-281    N    0.22707018    0.60107027    0.82936986    -0.35720000
opls_238-282    N    0.57850010    0.35719020    0.75766988    -0.35510000
opls_238-283    N    0.64301004    0.22174000    0.75449004    -0.35250000
opls_238-284    N    0.77701000    0.42724029    0.74497017    -0.30030000
opls_238-285    N    0.73170016    0.29336008    0.50407007    -0.35510000
opls_238-286    N    0.70870003    0.43781018    0.48769001    -0.30480000
opls_238-287    N    0.55943005    0.26755017    0.49299995    -0.35720000
opls_238-288    N    0.91172017    0.02427024    0.42303014    -0.35520000
opls_238-289    N    0.97475004    0.88640011    0.41589024    -0.35250000
opls_238-290    N    0.11154005    0.09376992    0.40784989    -0.30930000
opls_238-291    N    0.06485989    0.96010019    0.16873968    -0.35520000
opls_238-292    N    0.04193988    0.10428006    0.15331978    -0.30530000
opls_238-293    N    0.89299983    0.93446020    0.15965981    -0.35720000
opls_238-294    N    0.24542016    0.69134021    0.09245969    -0.35520000
opls_238-295    N    0.30783011    0.55276019    0.08348040    -0.35520000
opls_238-296    N    0.44510987    0.76039024    0.07509983    -0.30070000
opls_140-297    H    0.43266993    0.49930021    0.75455997    0.23630000
opls_140-298    H    0.50019995    0.93286014    0.73471014    0.04270000
opls_702-299    H    0.06686013    0.56620005    0.73551001    0.03790000
opls_140-300    H    0.41295033    0.43827038    0.91176988    0.11610000
opls_140-301    H    0.56453993    0.97330032    0.90380025    0.10340000
opls_140-302    H    0.02520009    0.58932018    0.90304045    0.03960000
opls_140-303    H    0.56103013    0.53390038    0.90803061    0.23740000
opls_140-304    H    0.46537030    0.02620024    0.90511006    0.06160000
opls_140-305    H    0.96969989    0.43680012    0.89846987    0.03770000
opls_140-306    H    0.52272015    0.55883036    0.75559006    0.04330000
opls_140-307    H    0.44179991    0.96167022    0.73932000    0.09820000
opls_140-308    H    0.03622991    0.47858004    0.73590051    0.04110000
opls_140-309    H    0.48361002    0.50336034    0.02633051    0.09990000
opls_140-310    H    0.49714009    0.97737018    0.01720036    0.10430000
opls_140-311    H    0.01838021    0.51609017    0.01438038    0.19080000
opls_140-312    H    0.49402008    0.45758006    0.00566038    0.09770000
opls_140-313    H    0.54303025    0.03419017    0.99935020    0.10430000
opls_140-314    H    0.96219017    0.50650011    0.99394990    0.11230000
opls_140-315    H    0.44503020    0.43011025    0.72735023    0.23780000
opls_140-316    H    0.57119006    0.01758017    0.71108017    0.04270000
opls_140-317    H    0.98317016    0.55390013    0.70703996    0.03820000
opls_140-318    H    0.53541003    0.49112032    0.72203007    0.04690000
opls_140-319    H    0.51149021    0.04522012    0.70838984    0.11290000
opls_702-320    H    0.95311999    0.46612021    0.70211031    0.04320000
opls_146-321    H    0.48130998    0.30040021    0.76832041    0.04700000
opls_146-322    H    0.70032010    0.18236011    0.76940000    0.06560000
opls_146-323    H    0.81984022    0.52354036    0.75893018    0.23710000
opls_146-324    H    0.49632004    0.68117009    0.86014052    0.04310000
opls_146-325    H    0.32066997    0.81339038    0.84810003    0.10350000
opls_146-326    H    0.18291007    0.50304006    0.84801046    0.23700000
opls_140-327    H    0.57701013    0.67682010    0.79184038    0.08090000
opls_702-328    H    0.32311020    0.89838043    0.79048028    0.12030000
opls_140-329    H    0.09833016    0.42166002    0.78620043    0.09770000
opls_140-330    H    0.58898016    0.63924019    0.88022057    0.11090000
opls_702-331    H    0.36056006    0.94653029    0.88216053    0.07900000
opls_140-332    H    0.04942020    0.41031022    0.87620000    0.09880000
opls_140-333    H    0.58109995    0.68755025    0.93341039    0.09550000
opls_702-334    H    0.31318988    0.88878013    0.93189000    0.08080000
opls_140-335    H    0.10654998    0.41977020    0.92785058    0.11720000
opls_702-336    H    0.39829009    0.28366033    0.76250053    0.07920000
opls_702-337    H    0.71864019    0.11758029    0.76487028    0.08150000
opls_140-338    H    0.88675008    0.60587025    0.75929005    0.15680000
opls_702-339    H    0.39407986    0.33552000    0.71886987    0.09960000
opls_702-340    H    0.66780991    0.06135999    0.71823029    0.10830000
opls_140-341    H    0.94235001    0.60944036    0.71366050    0.08190000
opls_702-342    H    0.38602021    0.31871019    0.85771026    0.09550000
opls_702-343    H    0.68335999    0.06926019    0.85779984    0.09040000
opls_140-344    H    0.93391006    0.61624023    0.85325048    0.16570000
opls_144-345    H    0.44464010    0.69990018    0.77575025    0.05970000
opls_144-346    H    0.30088017    0.74261029    0.77000030    0.11610000
opls_144-347    H    0.25612010    0.55490022    0.78184985    0.04560000
opls_910-348    H    0.36235998    0.60645035    0.86079032    0.25790000
opls_910-349    H    0.39594998    0.75470035    0.84577035    0.25400000
opls_910-350    H    0.24265021    0.63766040    0.85087994    0.24650000
opls_144-351    H    0.54855997    0.28187019    0.80469016    0.04320000
opls_144-352    H    0.71949990    0.26784011    0.79125030    0.11600000
opls_144-353    H    0.73189018    0.45554029    0.80302049    0.06530000
opls_910-354    H    0.61081010    0.38142030    0.71885023    0.24710000
opls_910-355    H    0.61833028    0.22949032    0.71673034    0.27340000
opls_910-356    H    0.76736993    0.39818019    0.69305008    0.25230000
opls_140-357    H    0.35325031    0.52326037    0.76603002    0.16500000
opls_140-358    H    0.33588991    0.52794006    0.90048055    0.12060000
opls_140-359    H    0.35373998    0.48417014    0.86878038    0.07900000
opls_140-360    H    0.63885023    0.46049028    0.80696013    0.15440000
opls_140-361    H    0.61521008    0.49919032    0.77193005    0.08080000
opls_140-362    H    0.61580019    0.45803013    0.67492021    0.09540000
opls_702-363    H    0.51777002    0.86847031    0.84774017    0.09590000
opls_702-364    H    0.47653003    0.82704017    0.74993046    0.09830000
opls_702-365    H    0.47511010    0.80722036    0.88515022    0.07920000
opls_702-366    H    0.53971008    0.17863024    0.80895038    0.09730000
opls_702-367    H    0.50124991    0.11646006    0.77209033    0.08140000
opls_702-368    H    0.54234017    0.15891023    0.67601001    0.09040000
opls_702-369    H    0.87326006    0.39076020    0.69818010    0.10870000
opls_702-370    H    0.81059004    0.36608020    0.72982998    0.11340000
opls_702-371    H    0.85270002    0.37319010    0.83253006    0.09460000
opls_702-372    H    0.19023012    0.66320009    0.90326045    0.12110000
opls_702-373    H    0.13002017    0.64665012    0.86074003    0.11130000
opls_702-374    H    0.17345017    0.64949019    0.76495043    0.08150000
opls_140-375    H    0.76580001    0.16616006    0.42235992    0.23620000
opls_140-376    H    0.83613010    0.60070012    0.41482008    0.07780000
opls_702-377    H    0.39818996    0.23347011    0.41422999    0.04330000
opls_140-378    H    0.74618006    0.10504027    0.57927047    0.11610000
opls_140-379    H    0.89636009    0.64027033    0.57424024    0.23740000
opls_140-380    H    0.35769015    0.25365001    0.57245978    0.10050000
opls_140-381    H    0.89424999    0.20075019    0.57549033    0.23740000
opls_140-382    H    0.79986987    0.69167009    0.57495997    0.10610000
opls_140-383    H    0.30374019    0.10533024    0.56735020    0.03990000
opls_140-384    H    0.85583989    0.22568005    0.42319986    0.04330000
opls_140-385    H    0.77596013    0.63030010    0.41903000    0.09220000
opls_140-386    H    0.36695993    0.14334014    0.41465979    0.07630000
opls_140-387    H    0.81686012    0.17012012    0.69391046    0.10150000
opls_140-388    H    0.83044995    0.64385015    0.68990010    0.09760000
opls_140-389    H    0.35138011    0.18243017    0.68602018    0.19080000
opls_140-390    H    0.82728002    0.12436021    0.67303996    0.09770000
opls_140-391    H    0.87602005    0.70049035    0.67215052    0.08890000
opls_140-392    H    0.29536025    0.17269028    0.66577041    0.11310000
opls_140-393    H    0.77826996    0.09706011    0.39471017    0.23790000
opls_140-394    H    0.90500003    0.68254027    0.39260992    0.08730000
opls_140-395    H    0.31747014    0.22206003    0.38775020    0.04290000
opls_140-396    H    0.86864009    0.15803017    0.38950001    0.04690000
opls_140-397    H    0.84322012    0.71074019    0.38908986    0.10340000
opls_702-398    H    0.28686020    0.13155008    0.38188003    0.06970000
opls_146-399    H    0.81455023    0.96738022    0.43418040    0.04690000
opls_146-400    H    0.03251992    0.84733023    0.43143978    0.07720000
opls_146-401    H    0.15411010    0.19025008    0.42245028    0.23710000
opls_146-402    H    0.82941004    0.34789031    0.52712017    0.04310000
opls_146-403    H    0.65395003    0.48100033    0.51006988    0.23620000
opls_146-404    H    0.51536016    0.16919004    0.51057039    0.23700000
opls_140-405    H    0.91019005    0.34369026    0.45963011    0.08090000
opls_702-406    H    0.65794014    0.56727008    0.45546026    0.12030000
opls_140-407    H    0.42981015    0.08785008    0.45150019    0.09770000
opls_140-408    H    0.92216025    0.30618023    0.54824052    0.11110000
opls_702-409    H    0.69454012    0.61409017    0.55049006    0.07900000
opls_140-410    H    0.38191985    0.07686998    0.54417045    0.09950000
opls_140-411    H    0.91410998    0.35444012    0.60118991    0.09380000
opls_702-412    H    0.64622987    0.55594009    0.59604025    0.08080000
opls_140-413    H    0.43946024    0.08612027    0.59255005    0.11900000
opls_702-414    H    0.73152997    0.95055020    0.42919025    0.07920000
opls_702-415    H    0.05068990    0.78233020    0.43205972    0.08140000
opls_140-416    H    0.22128006    0.27262024    0.42660049    0.15670000
opls_702-417    H    0.72728007    0.00242029    0.38577016    0.09990000
opls_702-418    H    0.99949995    0.72549033    0.38948980    0.10210000
opls_140-419    H    0.27731991    0.27632003    0.38409028    0.08200000
opls_702-420    H    0.71924024    0.98554039    0.52455005    0.09550000
opls_702-421    H    0.01603992    0.73552030    0.52841976    0.10390000
opls_140-422    H    0.26726006    0.28229007    0.52316010    0.16560000
opls_144-423    H    0.77763985    0.36642998    0.44356041    0.05730000
opls_144-424    H    0.63446012    0.41008025    0.43385982    0.11620000
opls_144-425    H    0.58856023    0.22138023    0.44609988    0.05330000
opls_910-426    H    0.69540025    0.27308020    0.52812983    0.25790000
opls_910-427    H    0.72932001    0.42209023    0.51119976    0.24730000
opls_910-428    H    0.57486005    0.30410009    0.51471039    0.24650000
opls_144-429    H    0.88144005    0.94878008    0.46908005    0.04300000
opls_144-430    H    0.05157990    0.93279028    0.44902986    0.11560000
opls_144-431    H    0.06646009    0.12195999    0.46700023    0.09160000
opls_910-432    H    0.94389988    0.04859001    0.38392999    0.24700000
opls_910-433    H    0.94949990    0.89362025    0.37908048    0.27340000
opls_910-434    H    0.10245000    0.06485009    0.35587009    0.24580000
opls_702-435    H    0.20876009    0.05825992    0.36563983    0.16210000
opls_702-436    H    0.14588005    0.03316993    0.39468031    0.11340000
opls_702-437    H    0.18718017    0.04022997    0.49929049    0.09730000
opls_702-438    H    0.52236007    0.32931016    0.56817050    0.12030000
opls_702-439    H    0.46181024    0.31223021    0.52743996    0.11570000
opls_702-440    H    0.50480981    0.31512995    0.43033034    0.08150000
opls_702-441    H    0.87219985    0.84380006    0.47434993    0.10230000
opls_702-442    H    0.83335005    0.78098010    0.44363977    0.08130000
opls_702-443    H    0.87287005    0.82150003    0.34295980    0.10390000
opls_702-444    H    0.85096014    0.53591013    0.51838995    0.09620000
opls_702-445    H    0.81056005    0.49493021    0.41879036    0.09820000
opls_702-446    H    0.80806003    0.47446023    0.55383019    0.07920000
opls_140-447    H    0.68602986    0.18974995    0.43505020    0.16450000
opls_140-448    H    0.66913003    0.19474028    0.56971052    0.11780000
opls_140-449    H    0.68687997    0.15090017    0.53797028    0.07900000
opls_140-450    H    0.97196996    0.12741999    0.47568016    0.15440000
opls_140-451    H    0.94847023    0.16619024    0.44032007    0.08080000
opls_140-452    H    0.94952010    0.12535022    0.34313031    0.09540000
opls_140-453    H    0.09920998    0.83277013    0.08819005    0.23620000
opls_140-454    H    0.16934007    0.26732999    0.08146972    0.08020000
opls_702-455    H    0.73181994    0.90032030    0.08124029    0.04330000
opls_140-456    H    0.07907010    0.77170029    0.24542982    0.12380000
opls_140-457    H    0.22970992    0.30650994    0.24084981    0.23730000
opls_140-458    H    0.69124996    0.92055016    0.23926971    0.10040000
opls_140-459    H    0.22713975    0.86744004    0.24381986    0.23740000
opls_140-460    H    0.13330010    0.35798019    0.24359986    0.10610000
opls_140-461    H    0.63737013    0.77224016    0.23456006    0.03990000
opls_140-462    H    0.18925014    0.89227024    0.09025022    0.04650000
opls_140-463    H    0.10918011    0.29693020    0.08699967    0.09220000
opls_140-464    H    0.70063999    0.81020001    0.08193016    0.07630000
opls_140-465    H    0.14932978    0.83681009    0.36083982    0.10150000
opls_140-466    H    0.16395990    0.30990007    0.35737004    0.09740000
opls_140-467    H    0.68495997    0.84940013    0.35307997    0.19070000
opls_140-468    H    0.15984997    0.79106010    0.34078020    0.09610000
opls_140-469    H    0.20952983    0.36657994    0.33991040    0.09930000
opls_140-470    H    0.62893007    0.83962009    0.33269035    0.11090000
opls_140-471    H    0.11182006    0.76371003    0.06164032    0.23780000
opls_140-472    H    0.23817004    0.34913007    0.05970978    0.08340000
opls_140-473    H    0.65109986    0.88886010    0.05454991    0.04310000
opls_140-474    H    0.20217983    0.82469002    0.05779968    0.04700000
opls_140-475    H    0.17643003    0.37734999    0.05745003    0.10340000
opls_702-476    H    0.62053997    0.79836004    0.04893039    0.06970000
opls_146-477    H    0.14822002    0.63428002    0.10191985    0.04700000
opls_146-478    H    0.36566011    0.51373006    0.09805014    0.07630000
opls_146-479    H    0.48762003    0.85689023    0.08905985    0.23710000
opls_146-480    H    0.16253994    0.01463003    0.19277036    0.04310000
opls_146-481    H    0.98722014    0.14742008    0.17727032    0.23630000
opls_146-482    H    0.84903992    0.83617015    0.17805998    0.23700000
opls_140-483    H    0.24325987    0.01011011    0.12527009    0.08090000
opls_702-484    H    0.99126981    0.23383998    0.12353992    0.12000000
opls_140-485    H    0.76349008    0.75479031    0.11902985    0.09760000
opls_140-486    H    0.25515993    0.97270019    0.21428987    0.10670000
opls_702-487    H    0.02792012    0.28047998    0.21886044    0.07900000
opls_140-488    H    0.71559007    0.74381008    0.21168990    0.09950000
opls_140-489    H    0.24728994    0.02113021    0.26671989    0.09550000
opls_702-490    H    0.97960002    0.22227007    0.26407041    0.08080000
opls_140-491    H    0.77313995    0.75309024    0.26008992    0.12830000
opls_702-492    H    0.06517007    0.61734023    0.09541009    0.08090000
opls_702-493    H    0.38385981    0.44876003    0.09784978    0.08140000
opls_140-494    H    0.55479995    0.93927034    0.09194975    0.10530000
opls_702-495    H    0.06097999    0.66927015    0.05225009    0.09900000
opls_702-496    H    0.33253997    0.39189995    0.05581022    0.09830000
opls_140-497    H    0.61095987    0.94298024    0.05036984    0.08740000
opls_702-498    H    0.05245013    0.65199018    0.19079976    0.09550000
opls_702-499    H    0.34950999    0.40198019    0.19450997    0.10410000
opls_140-500    H    0.60061992    0.94913020    0.18918981    0.16560000
opls_144-501    H    0.11088003    0.03306014    0.10776016    0.05720000
opls_144-502    H    0.96768024    0.07670018    0.09990996    0.11620000
opls_144-503    H    0.92198997    0.88823008    0.11226002    0.03640000
opls_910-504    H    0.02855997    0.93987021    0.19285994    0.25790000
opls_910-505    H    0.06258011    0.08850999    0.17638009    0.24430000
opls_910-506    H    0.90846992    0.97104001    0.18109996    0.24660000
opls_144-507    H    0.21497985    0.61578002    0.13810967    0.04300000
opls_144-508    H    0.38477007    0.59914022    0.11550036    0.11560000
opls_144-509    H    0.40021997    0.78863021    0.13524019    0.07880000
opls_910-510    H    0.27763984    0.71576008    0.05361018    0.24550000
opls_910-511    H    0.28248006    0.55993006    0.04706036    0.27340000
opls_910-512    H    0.43597975    0.73144995    0.02317974    0.24800000
opls_702-513    H    0.20546010    0.51018013    0.14412991    0.09830000
opls_702-514    H    0.16653992    0.44738015    0.11334982    0.08080000
opls_702-515    H    0.20579005    0.48796016    0.01247028    0.09390000
opls_702-516    H    0.18425002    0.20234014    0.18305013    0.09620000
opls_702-517    H    0.14363001    0.16161995    0.08339004    0.09840000
opls_702-518    H    0.14145008    0.14081006    0.21798043    0.07920000
opls_702-519    H    0.54256007    0.72507007    0.03273026    0.16210000
opls_702-520    H    0.47964988    0.69996006    0.06135981    0.11370000
opls_702-521    H    0.52082008    0.70700014    0.16628035    0.10830000
opls_702-522    H    0.85601989    0.99629010    0.23476985    0.12110000
opls_702-523    H    0.79539978    0.97916011    0.19449975    0.11200000
opls_702-524    H    0.83824991    0.98196001    0.09707977    0.08140000
opls_140-525    H    0.01961997    0.85668004    0.09842965    0.16500000
opls_140-526    H    0.00205988    0.86132010    0.23270025    0.12040000
opls_140-527    H    0.02000998    0.81760026    0.20134029    0.07900000
opls_140-528    H    0.30525005    0.79440000    0.14775997    0.15440000
opls_140-529    H    0.28188020    0.83312031    0.11106021    0.08080000
opls_140-530    H    0.28371000    0.79253028    0.01437017    0.09510000
