#======================================================================
# Crystal Data Generated By AuToFF
#----------------------------------------------------------------------

data_AuToFF_phase_1

_cell_length_a                         19.3600
_cell_length_b                         54.1900
_cell_length_c                         25.9000
_cell_angle_alpha                      90.00
_cell_angle_beta                       90.00
_cell_angle_gamma                      90.00
_symmetry_space_group_name_H-M_alt     'P 1'
_symmetry_space_group_IT_number        1

loop_
_space_group_symop_operation_xyz
   'x, y, z'

loop_
   _atom_site_label
   _atom_site_type_symbol
   _atom_site_fract_x
   _atom_site_fract_y
   _atom_site_fract_z
   _atom_site_charge
opls_700-0    C    0.18336983    0.37873002    0.79981004    0.07650000
opls_145-1    C    0.21969008    0.37684001    0.84617992    -0.07700000
opls_145-2    C    0.26269990    0.39579996    0.86218996    -0.11010000
opls_700-3    C    0.26877996    0.41741004    0.83288996    0.08340000
opls_145-4    C    0.22894008    0.41994003    0.78798996    -0.09430000
opls_145-5    C    0.18666012    0.40067005    0.77141004    -0.09280000
opls_700-6    C    0.31561002    0.43729009    0.85007992    0.08140000
opls_145-7    C    0.35432025    0.45142000    0.81512008    -0.07570000
opls_145-8    C    0.39547986    0.47093006    0.83267992    -0.13560000
opls_916-9    C    0.39725000    0.47704004    0.88532008    0.19990000
opls_145-10    C    0.36427996    0.46095996    0.91960000    -0.14190000
opls_145-11    C    0.32275000    0.44194003    0.90258996    -0.10130000
opls_142-12    C    0.15660021    0.35599004    0.77711004    0.12510000
opls_145-13    C    0.16322986    0.33180993    0.70153012    0.23380000
opls_145-14    C    0.12263998    0.32464994    0.65964015    -0.11000000
opls_145-15    C    0.14210021    0.30426001    0.63024981    -0.07570000
opls_700-16    C    0.20441994    0.29183004    0.64094015    0.08350000
opls_145-17    C    0.24405992    0.29889002    0.68350000    -0.07880000
opls_145-18    C    0.22357025    0.31861008    0.71356988    -0.11140000
opls_700-19    C    0.27174019    0.22896992    0.60921004    0.03260000
opls_700-20    C    0.26825981    0.22836003    0.55502008    0.03630000
opls_145-21    C    0.28002996    0.20672006    0.52678996    -0.11050000
opls_700-22    C    0.68336983    0.87873002    0.79981004    0.07650000
opls_145-23    C    0.71969008    0.87684001    0.84617992    -0.07700000
opls_145-24    C    0.76269990    0.89579996    0.86218996    -0.11010000
opls_700-25    C    0.76877996    0.91741004    0.83288996    0.08340000
opls_145-26    C    0.72894008    0.91994003    0.78798996    -0.09430000
opls_145-27    C    0.68666012    0.90067005    0.77141004    -0.09280000
opls_700-28    C    0.81561002    0.93729009    0.85007992    0.08140000
opls_145-29    C    0.85432025    0.95142000    0.81512008    -0.07570000
opls_145-30    C    0.89547986    0.97093006    0.83267992    -0.13560000
opls_916-31    C    0.89725000    0.97704004    0.88532008    0.19990000
opls_145-32    C    0.86427996    0.96095996    0.91960000    -0.14200000
opls_145-33    C    0.82275000    0.94194003    0.90258996    -0.10130000
opls_142-34    C    0.65660021    0.85599004    0.77711004    0.12510000
opls_145-35    C    0.66322986    0.83180993    0.70153012    0.23390000
opls_145-36    C    0.62263998    0.82464994    0.65964015    -0.11000000
opls_145-37    C    0.64210021    0.80426001    0.63024981    -0.07570000
opls_700-38    C    0.70441994    0.79183004    0.64094015    0.08350000
opls_145-39    C    0.74405992    0.79889002    0.68350000    -0.07880000
opls_145-40    C    0.72357025    0.81861008    0.71356988    -0.11140000
opls_700-41    C    0.77174019    0.72896992    0.60921004    0.03260000
opls_700-42    C    0.76825981    0.72836003    0.55502008    0.03630000
opls_145-43    C    0.78002996    0.70672006    0.52678996    -0.11050000
opls_700-44    C    0.81663017    0.62126998    0.79981004    0.07650000
opls_145-45    C    0.78030992    0.62315999    0.84617992    -0.07700000
opls_145-46    C    0.73730010    0.60420004    0.86218996    -0.11000000
opls_700-47    C    0.73122004    0.58258996    0.83288996    0.08340000
opls_145-48    C    0.77105992    0.58005997    0.78798996    -0.09430000
opls_145-49    C    0.81333988    0.59932995    0.77141004    -0.09280000
opls_700-50    C    0.68438998    0.56270991    0.85007992    0.08140000
opls_145-51    C    0.64567975    0.54858000    0.81512008    -0.07560000
opls_145-52    C    0.60452014    0.52906994    0.83267992    -0.13550000
opls_916-53    C    0.60275000    0.52295996    0.88532008    0.19990000
opls_145-54    C    0.63572004    0.53904004    0.91960000    -0.14200000
opls_145-55    C    0.67725000    0.55805997    0.90258996    -0.10130000
opls_142-56    C    0.84339979    0.64400996    0.77711004    0.12510000
opls_145-57    C    0.83677014    0.66819007    0.70153012    0.23390000
opls_145-58    C    0.87736002    0.67535006    0.65964015    -0.11000000
opls_145-59    C    0.85789979    0.69573999    0.63024981    -0.07570000
opls_700-60    C    0.79558006    0.70816996    0.64094015    0.08360000
opls_145-61    C    0.75594008    0.70110998    0.68350000    -0.07880000
opls_145-62    C    0.77642975    0.68138992    0.71356988    -0.11140000
opls_700-63    C    0.72825981    0.77103008    0.60921004    0.03260000
opls_700-64    C    0.73174019    0.77163997    0.55502008    0.03630000
opls_145-65    C    0.71997004    0.79327994    0.52678996    -0.11050000
opls_700-66    C    0.31663017    0.12126998    0.79981004    0.07650000
opls_145-67    C    0.28030992    0.12315999    0.84617992    -0.07690000
opls_145-68    C    0.23730010    0.10420004    0.86218996    -0.11010000
opls_700-69    C    0.23122004    0.08258996    0.83288996    0.08340000
opls_145-70    C    0.27105992    0.08005997    0.78798996    -0.09430000
opls_145-71    C    0.31333988    0.09932995    0.77141004    -0.09280000
opls_700-72    C    0.18438998    0.06270991    0.85007992    0.08140000
opls_145-73    C    0.14567975    0.04858000    0.81512008    -0.07560000
opls_145-74    C    0.10452014    0.02906994    0.83267992    -0.13560000
opls_916-75    C    0.10275000    0.02295996    0.88532008    0.19990000
opls_145-76    C    0.13572004    0.03904004    0.91960000    -0.14200000
opls_145-77    C    0.17725000    0.05805997    0.90258996    -0.10130000
opls_142-78    C    0.34339979    0.14400996    0.77711004    0.12510000
opls_145-79    C    0.33677014    0.16819007    0.70153012    0.23380000
opls_145-80    C    0.37736002    0.17535006    0.65964015    -0.11000000
opls_145-81    C    0.35789979    0.19573999    0.63024981    -0.07560000
opls_700-82    C    0.29558006    0.20816996    0.64094015    0.08360000
opls_145-83    C    0.25594008    0.20110998    0.68350000    -0.07880000
opls_145-84    C    0.27642975    0.18138992    0.71356988    -0.11140000
opls_700-85    C    0.22825981    0.27103008    0.60921004    0.03260000
opls_700-86    C    0.23174019    0.27163997    0.55502008    0.03630000
opls_145-87    C    0.21997004    0.29327994    0.52678996    -0.11050000
opls_700-88    C    0.81663017    0.37873002    0.20018996    0.07650000
opls_145-89    C    0.78030992    0.37684001    0.15382008    -0.07700000
opls_145-90    C    0.73730010    0.39579996    0.13781004    -0.11010000
opls_700-91    C    0.73122004    0.41741004    0.16711004    0.08340000
opls_145-92    C    0.77105992    0.41994003    0.21201004    -0.09430000
opls_145-93    C    0.81333988    0.40067005    0.22858996    -0.09280000
opls_700-94    C    0.68438998    0.43729009    0.14992008    0.08140000
opls_145-95    C    0.64567975    0.45142000    0.18487992    -0.07570000
opls_145-96    C    0.60452014    0.47093006    0.16732008    -0.13560000
opls_916-97    C    0.60275000    0.47704004    0.11467992    0.19980000
opls_145-98    C    0.63572004    0.46095996    0.08040000    -0.14200000
opls_145-99    C    0.67725000    0.44194003    0.09741004    -0.10130000
opls_142-100    C    0.84339979    0.35599004    0.22288996    0.12510000
opls_145-101    C    0.83677014    0.33180993    0.29846988    0.23390000
opls_145-102    C    0.87736002    0.32464994    0.34035985    -0.11000000
opls_145-103    C    0.85789979    0.30426001    0.36975019    -0.07570000
opls_700-104    C    0.79558006    0.29183004    0.35905985    0.08350000
opls_145-105    C    0.75594008    0.29889002    0.31650000    -0.07880000
opls_145-106    C    0.77642975    0.31861008    0.28643012    -0.11140000
opls_700-107    C    0.72825981    0.22896992    0.39078996    0.03260000
opls_700-108    C    0.73174019    0.22836003    0.44497992    0.03630000
opls_145-109    C    0.71997004    0.20672006    0.47321004    -0.11030000
opls_700-110    C    0.31663017    0.87873002    0.20018996    0.07650000
opls_145-111    C    0.28030992    0.87684001    0.15382008    -0.07700000
opls_145-112    C    0.23730010    0.89579996    0.13781004    -0.11010000
opls_700-113    C    0.23122004    0.91741004    0.16711004    0.08340000
opls_145-114    C    0.27105992    0.91994003    0.21201004    -0.09430000
opls_145-115    C    0.31333988    0.90067005    0.22858996    -0.09280000
opls_700-116    C    0.18438998    0.93729009    0.14992008    0.08140000
opls_145-117    C    0.14567975    0.95142000    0.18487992    -0.07570000
opls_145-118    C    0.10452014    0.97093006    0.16732008    -0.13560000
opls_916-119    C    0.10275000    0.97704004    0.11467992    0.19980000
opls_145-120    C    0.13572004    0.96095996    0.08040000    -0.14200000
opls_145-121    C    0.17725000    0.94194003    0.09741004    -0.10130000
opls_142-122    C    0.34339979    0.85599004    0.22288996    0.12510000
opls_145-123    C    0.33677014    0.83180993    0.29846988    0.23380000
opls_145-124    C    0.37736002    0.82464994    0.34035985    -0.11000000
opls_145-125    C    0.35789979    0.80426001    0.36975019    -0.07570000
opls_700-126    C    0.29558006    0.79183004    0.35905985    0.08360000
opls_145-127    C    0.25594008    0.79889002    0.31650000    -0.07880000
opls_145-128    C    0.27642975    0.81861008    0.28643012    -0.11140000
opls_700-129    C    0.22825981    0.72896992    0.39078996    0.03260000
opls_700-130    C    0.23174019    0.72836003    0.44497992    0.03630000
opls_145-131    C    0.21997004    0.70672006    0.47321004    -0.11050000
opls_700-132    C    0.18336983    0.62126998    0.20018996    0.07660000
opls_145-133    C    0.21969008    0.62315999    0.15382008    -0.07700000
opls_145-134    C    0.26269990    0.60420004    0.13781004    -0.11010000
opls_700-135    C    0.26877996    0.58258996    0.16711004    0.08340000
opls_145-136    C    0.22894008    0.58005997    0.21201004    -0.09430000
opls_145-137    C    0.18666012    0.59932995    0.22858996    -0.09280000
opls_700-138    C    0.31561002    0.56270991    0.14992008    0.08140000
opls_145-139    C    0.35432025    0.54858000    0.18487992    -0.07560000
opls_145-140    C    0.39547986    0.52906994    0.16732008    -0.13560000
opls_916-141    C    0.39725000    0.52295996    0.11467992    0.19980000
opls_145-142    C    0.36427996    0.53904004    0.08040000    -0.14200000
opls_145-143    C    0.32275000    0.55805997    0.09741004    -0.10130000
opls_142-144    C    0.15660021    0.64400996    0.22288996    0.12510000
opls_145-145    C    0.16322986    0.66819007    0.29846988    0.23380000
opls_145-146    C    0.12263998    0.67535006    0.34035985    -0.11000000
opls_145-147    C    0.14210021    0.69573999    0.36975019    -0.07570000
opls_700-148    C    0.20441994    0.70816996    0.35905985    0.08350000
opls_145-149    C    0.24405992    0.70110998    0.31650000    -0.07880000
opls_145-150    C    0.22357025    0.68138992    0.28643012    -0.11140000
opls_700-151    C    0.27174019    0.77103008    0.39078996    0.03260000
opls_700-152    C    0.26825981    0.77163997    0.44497992    0.03630000
opls_145-153    C    0.28002996    0.79327994    0.47321004    -0.11050000
opls_700-154    C    0.68336983    0.12126998    0.20018996    0.07650000
opls_145-155    C    0.71969008    0.12315999    0.15382008    -0.07700000
opls_145-156    C    0.76269990    0.10420004    0.13781004    -0.11010000
opls_700-157    C    0.76877996    0.08258996    0.16711004    0.08340000
opls_145-158    C    0.72894008    0.08005997    0.21201004    -0.09430000
opls_145-159    C    0.68666012    0.09932995    0.22858996    -0.09280000
opls_700-160    C    0.81561002    0.06270991    0.14992008    0.08140000
opls_145-161    C    0.85432025    0.04858000    0.18487992    -0.07570000
opls_145-162    C    0.89547986    0.02906994    0.16732008    -0.13560000
opls_916-163    C    0.89725000    0.02295996    0.11467992    0.19980000
opls_145-164    C    0.86427996    0.03904004    0.08040000    -0.14190000
opls_145-165    C    0.82275000    0.05805997    0.09741004    -0.10130000
opls_142-166    C    0.65660021    0.14400996    0.22288996    0.12510000
opls_145-167    C    0.66322986    0.16819007    0.29846988    0.23380000
opls_145-168    C    0.62263998    0.17535006    0.34035985    -0.11000000
opls_145-169    C    0.64210021    0.19573999    0.36975019    -0.07570000
opls_700-170    C    0.70441994    0.20816996    0.35905985    0.08350000
opls_145-171    C    0.74405992    0.20110998    0.31650000    -0.07880000
opls_145-172    C    0.72357025    0.18138992    0.28643012    -0.11140000
opls_700-173    C    0.77174019    0.27103008    0.39078996    0.03260000
opls_700-174    C    0.76825981    0.27163997    0.44497992    0.03630000
opls_145-175    C    0.78002996    0.29327994    0.47321004    -0.11050000
opls_700-176    C    0.81663017    0.62126998    0.20018996    0.07650000
opls_145-177    C    0.78030992    0.62315999    0.15382008    -0.07700000
opls_145-178    C    0.73730010    0.60420004    0.13781004    -0.11010000
opls_700-179    C    0.73122004    0.58258996    0.16711004    0.08340000
opls_145-180    C    0.77105992    0.58005997    0.21201004    -0.09430000
opls_145-181    C    0.81333988    0.59932995    0.22858996    -0.09280000
opls_700-182    C    0.68438998    0.56270991    0.14992008    0.08140000
opls_145-183    C    0.64567975    0.54858000    0.18487992    -0.07570000
opls_145-184    C    0.60452014    0.52906994    0.16732008    -0.13560000
opls_916-185    C    0.60275000    0.52295996    0.11467992    0.19980000
opls_145-186    C    0.63572004    0.53904004    0.08040000    -0.14200000
opls_145-187    C    0.67725000    0.55805997    0.09741004    -0.10120000
opls_142-188    C    0.84339979    0.64400996    0.22288996    0.12510000
opls_145-189    C    0.83677014    0.66819007    0.29846988    0.23390000
opls_145-190    C    0.87736002    0.67535006    0.34035985    -0.10990000
opls_145-191    C    0.85789979    0.69573999    0.36975019    -0.07570000
opls_700-192    C    0.79558006    0.70816996    0.35905985    0.08350000
opls_145-193    C    0.75594008    0.70110998    0.31650000    -0.07880000
opls_145-194    C    0.77642975    0.68138992    0.28643012    -0.11140000
opls_700-195    C    0.72825981    0.77103008    0.39078996    0.03260000
opls_700-196    C    0.73174019    0.77163997    0.44497992    0.03630000
opls_145-197    C    0.71997004    0.79327994    0.47321004    -0.11050000
opls_700-198    C    0.31663017    0.12126998    0.20018996    0.07650000
opls_145-199    C    0.28030992    0.12315999    0.15382008    -0.07700000
opls_145-200    C    0.23730010    0.10420004    0.13781004    -0.11000000
opls_700-201    C    0.23122004    0.08258996    0.16711004    0.08340000
opls_145-202    C    0.27105992    0.08005997    0.21201004    -0.09430000
opls_145-203    C    0.31333988    0.09932995    0.22858996    -0.09280000
opls_700-204    C    0.18438998    0.06270991    0.14992008    0.08140000
opls_145-205    C    0.14567975    0.04858000    0.18487992    -0.07570000
opls_145-206    C    0.10452014    0.02906994    0.16732008    -0.13560000
opls_916-207    C    0.10275000    0.02295996    0.11467992    0.19980000
opls_145-208    C    0.13572004    0.03904004    0.08040000    -0.14200000
opls_145-209    C    0.17725000    0.05805997    0.09741004    -0.10130000
opls_142-210    C    0.34339979    0.14400996    0.22288996    0.12510000
opls_145-211    C    0.33677014    0.16819007    0.29846988    0.23380000
opls_145-212    C    0.37736002    0.17535006    0.34035985    -0.11000000
opls_145-213    C    0.35789979    0.19573999    0.36975019    -0.07570000
opls_700-214    C    0.29558006    0.20816996    0.35905985    0.08350000
opls_145-215    C    0.25594008    0.20110998    0.31650000    -0.07870000
opls_145-216    C    0.27642975    0.18138992    0.28643012    -0.11140000
opls_700-217    C    0.22825981    0.27103008    0.39078996    0.03260000
opls_700-218    C    0.23174019    0.27163997    0.44497992    0.03630000
opls_145-219    C    0.21997004    0.29327994    0.47321004    -0.11050000
opls_700-220    C    0.18336983    0.37873002    0.20018996    0.07650000
opls_145-221    C    0.21969008    0.37684001    0.15382008    -0.07690000
opls_145-222    C    0.26269990    0.39579996    0.13781004    -0.11010000
opls_700-223    C    0.26877996    0.41741004    0.16711004    0.08340000
opls_145-224    C    0.22894008    0.41994003    0.21201004    -0.09430000
opls_145-225    C    0.18666012    0.40067005    0.22858996    -0.09280000
opls_700-226    C    0.31561002    0.43729009    0.14992008    0.08140000
opls_145-227    C    0.35432025    0.45142000    0.18487992    -0.07570000
opls_145-228    C    0.39547986    0.47093006    0.16732008    -0.13560000
opls_916-229    C    0.39725000    0.47704004    0.11467992    0.20010000
opls_145-230    C    0.36427996    0.46095996    0.08040000    -0.14200000
opls_145-231    C    0.32275000    0.44194003    0.09741004    -0.10130000
opls_142-232    C    0.15660021    0.35599004    0.22288996    0.12510000
opls_145-233    C    0.16322986    0.33180993    0.29846988    0.23380000
opls_145-234    C    0.12263998    0.32464994    0.34035985    -0.11000000
opls_145-235    C    0.14210021    0.30426001    0.36975019    -0.07570000
opls_700-236    C    0.20441994    0.29183004    0.35905985    0.08360000
opls_145-237    C    0.24405992    0.29889002    0.31650000    -0.07880000
opls_145-238    C    0.22357025    0.31861008    0.28643012    -0.11140000
opls_700-239    C    0.27174019    0.22896992    0.39078996    0.03260000
opls_700-240    C    0.26825981    0.22836003    0.44497992    0.03630000
opls_145-241    C    0.28002996    0.20672006    0.47321004    -0.11040000
opls_700-242    C    0.68336983    0.87873002    0.20018996    0.07650000
opls_145-243    C    0.71969008    0.87684001    0.15382008    -0.07700000
opls_145-244    C    0.76269990    0.89579996    0.13781004    -0.11000000
opls_700-245    C    0.76877996    0.91741004    0.16711004    0.08350000
opls_145-246    C    0.72894008    0.91994003    0.21201004    -0.09430000
opls_145-247    C    0.68666012    0.90067005    0.22858996    -0.09280000
opls_700-248    C    0.81561002    0.93729009    0.14992008    0.08140000
opls_145-249    C    0.85432025    0.95142000    0.18487992    -0.07570000
opls_145-250    C    0.89547986    0.97093006    0.16732008    -0.13560000
opls_916-251    C    0.89725000    0.97704004    0.11467992    0.19980000
opls_145-252    C    0.86427996    0.96095996    0.08040000    -0.14200000
opls_145-253    C    0.82275000    0.94194003    0.09741004    -0.10130000
opls_142-254    C    0.65660021    0.85599004    0.22288996    0.12510000
opls_145-255    C    0.66322986    0.83180993    0.29846988    0.23380000
opls_145-256    C    0.62263998    0.82464994    0.34035985    -0.11000000
opls_145-257    C    0.64210021    0.80426001    0.36975019    -0.07570000
opls_700-258    C    0.70441994    0.79183004    0.35905985    0.08350000
opls_145-259    C    0.74405992    0.79889002    0.31650000    -0.07880000
opls_145-260    C    0.72357025    0.81861008    0.28643012    -0.11140000
opls_700-261    C    0.77174019    0.72896992    0.39078996    0.03260000
opls_700-262    C    0.76825981    0.72836003    0.44497992    0.03630000
opls_145-263    C    0.78002996    0.70672006    0.47321004    -0.11050000
opls_700-264    C    0.18336983    0.62126998    0.79981004    0.07650000
opls_145-265    C    0.21969008    0.62315999    0.84617992    -0.07700000
opls_145-266    C    0.26269990    0.60420004    0.86218996    -0.11010000
opls_700-267    C    0.26877996    0.58258996    0.83288996    0.08340000
opls_145-268    C    0.22894008    0.58005997    0.78798996    -0.09430000
opls_145-269    C    0.18666012    0.59932995    0.77141004    -0.09280000
opls_700-270    C    0.31561002    0.56270991    0.85007992    0.08140000
opls_145-271    C    0.35432025    0.54858000    0.81512008    -0.07570000
opls_145-272    C    0.39547986    0.52906994    0.83267992    -0.13560000
opls_916-273    C    0.39725000    0.52295996    0.88532008    0.19990000
opls_145-274    C    0.36427996    0.53904004    0.91960000    -0.14200000
opls_145-275    C    0.32275000    0.55805997    0.90258996    -0.10120000
opls_142-276    C    0.15660021    0.64400996    0.77711004    0.12510000
opls_145-277    C    0.16322986    0.66819007    0.70153012    0.23380000
opls_145-278    C    0.12263998    0.67535006    0.65964015    -0.11000000
opls_145-279    C    0.14210021    0.69573999    0.63024981    -0.07570000
opls_700-280    C    0.20441994    0.70816996    0.64094015    0.08350000
opls_145-281    C    0.24405992    0.70110998    0.68350000    -0.07880000
opls_145-282    C    0.22357025    0.68138992    0.71356988    -0.11140000
opls_700-283    C    0.27174019    0.77103008    0.60921004    0.03260000
opls_700-284    C    0.26825981    0.77163997    0.55502008    0.03640000
opls_145-285    C    0.28002996    0.79327994    0.52678996    -0.11050000
opls_700-286    C    0.68336983    0.12126998    0.79981004    0.07660000
opls_145-287    C    0.71969008    0.12315999    0.84617992    -0.07700000
opls_145-288    C    0.76269990    0.10420004    0.86218996    -0.11010000
opls_700-289    C    0.76877996    0.08258996    0.83288996    0.08340000
opls_145-290    C    0.72894008    0.08005997    0.78798996    -0.09430000
opls_145-291    C    0.68666012    0.09932995    0.77141004    -0.09280000
opls_700-292    C    0.81561002    0.06270991    0.85007992    0.08140000
opls_145-293    C    0.85432025    0.04858000    0.81512008    -0.07570000
opls_145-294    C    0.89547986    0.02906994    0.83267992    -0.13560000
opls_916-295    C    0.89725000    0.02295996    0.88532008    0.19980000
opls_145-296    C    0.86427996    0.03904004    0.91960000    -0.14180000
opls_145-297    C    0.82275000    0.05805997    0.90258996    -0.10120000
opls_142-298    C    0.65660021    0.14400996    0.77711004    0.12510000
opls_145-299    C    0.66322986    0.16819007    0.70153012    0.23380000
opls_145-300    C    0.62263998    0.17535006    0.65964015    -0.11000000
opls_145-301    C    0.64210021    0.19573999    0.63024981    -0.07570000
opls_700-302    C    0.70441994    0.20816996    0.64094015    0.08350000
opls_145-303    C    0.74405992    0.20110998    0.68350000    -0.07880000
opls_145-304    C    0.72357025    0.18138992    0.71356988    -0.11140000
opls_700-305    C    0.77174019    0.27103008    0.60921004    0.03260000
opls_700-306    C    0.76825981    0.27163997    0.55502008    0.03630000
opls_145-307    C    0.78002996    0.29327994    0.52678996    -0.11050000
opls_700-308    C    0.81663017    0.37873002    0.79981004    0.07650000
opls_145-309    C    0.78030992    0.37684001    0.84617992    -0.07700000
opls_145-310    C    0.73730010    0.39579996    0.86218996    -0.11010000
opls_700-311    C    0.73122004    0.41741004    0.83288996    0.08340000
opls_145-312    C    0.77105992    0.41994003    0.78798996    -0.09430000
opls_145-313    C    0.81333988    0.40067005    0.77141004    -0.09280000
opls_700-314    C    0.68438998    0.43729009    0.85007992    0.08140000
opls_145-315    C    0.64567975    0.45142000    0.81512008    -0.07570000
opls_145-316    C    0.60452014    0.47093006    0.83267992    -0.13550000
opls_916-317    C    0.60275000    0.47704004    0.88532008    0.19980000
opls_145-318    C    0.63572004    0.46095996    0.91960000    -0.14200000
opls_145-319    C    0.67725000    0.44194003    0.90258996    -0.10120000
opls_142-320    C    0.84339979    0.35599004    0.77711004    0.12510000
opls_145-321    C    0.83677014    0.33180993    0.70153012    0.23400000
opls_145-322    C    0.87736002    0.32464994    0.65964015    -0.11000000
opls_145-323    C    0.85789979    0.30426001    0.63024981    -0.07570000
opls_700-324    C    0.79558006    0.29183004    0.64094015    0.08350000
opls_145-325    C    0.75594008    0.29889002    0.68350000    -0.07880000
opls_145-326    C    0.77642975    0.31861008    0.71356988    -0.11140000
opls_700-327    C    0.72825981    0.22896992    0.60921004    0.03260000
opls_700-328    C    0.73174019    0.22836003    0.55502008    0.03630000
opls_145-329    C    0.71997004    0.20672006    0.52678996    -0.11050000
opls_700-330    C    0.31663017    0.87873002    0.79981004    0.07650000
opls_145-331    C    0.28030992    0.87684001    0.84617992    -0.07700000
opls_145-332    C    0.23730010    0.89579996    0.86218996    -0.11010000
opls_700-333    C    0.23122004    0.91741004    0.83288996    0.08340000
opls_145-334    C    0.27105992    0.91994003    0.78798996    -0.09430000
opls_145-335    C    0.31333988    0.90067005    0.77141004    -0.09270000
opls_700-336    C    0.18438998    0.93729009    0.85007992    0.08140000
opls_145-337    C    0.14567975    0.95142000    0.81512008    -0.07570000
opls_145-338    C    0.10452014    0.97093006    0.83267992    -0.13550000
opls_916-339    C    0.10275000    0.97704004    0.88532008    0.19980000
opls_145-340    C    0.13572004    0.96095996    0.91960000    -0.14190000
opls_145-341    C    0.17725000    0.94194003    0.90258996    -0.10130000
opls_142-342    C    0.34339979    0.85599004    0.77711004    0.12520000
opls_145-343    C    0.33677014    0.83180993    0.70153012    0.23380000
opls_145-344    C    0.37736002    0.82464994    0.65964015    -0.11000000
opls_145-345    C    0.35789979    0.80426001    0.63024981    -0.07570000
opls_700-346    C    0.29558006    0.79183004    0.64094015    0.08360000
opls_145-347    C    0.25594008    0.79889002    0.68350000    -0.07880000
opls_145-348    C    0.27642975    0.81861008    0.71356988    -0.11140000
opls_700-349    C    0.22825981    0.72896992    0.60921004    0.03270000
opls_700-350    C    0.23174019    0.72836003    0.55502008    0.03630000
opls_145-351    C    0.21997004    0.70672006    0.52678996    -0.11050000
opls_261-352    C    0.25000000    0.25000000    0.63507992    -0.07840000
opls_700-353    C    0.25000000    0.25000000    0.52841004    0.00200000
opls_261-354    C    0.75000000    0.75000000    0.63507992    -0.07840000
opls_700-355    C    0.75000000    0.75000000    0.52841004    0.00200000
opls_261-356    C    0.75000000    0.25000000    0.36492008    -0.07840000
opls_700-357    C    0.75000000    0.25000000    0.47158996    0.00200000
opls_261-358    C    0.25000000    0.75000000    0.36492008    -0.07840000
opls_700-359    C    0.25000000    0.75000000    0.47158996    0.00200000
opls_261-360    C    0.75000000    0.75000000    0.36492008    -0.07840000
opls_700-361    C    0.75000000    0.75000000    0.47158996    0.00200000
opls_261-362    C    0.25000000    0.25000000    0.36492008    -0.07830000
opls_700-363    C    0.25000000    0.25000000    0.47158996    0.00200000
opls_261-364    C    0.25000000    0.75000000    0.63507992    -0.07840000
opls_700-365    C    0.25000000    0.75000000    0.52841004    0.00200000
opls_261-366    C    0.75000000    0.25000000    0.63507992    -0.07840000
opls_700-367    C    0.75000000    0.25000000    0.52841004    0.00200000
opls_916-368    C    0.96382025    0.00000000    0.04758996    0.00360000
opls_916-369    C    0.46382025    0.50000000    0.04758996    0.00360000
opls_916-370    C    0.03617975    0.00000000    0.04758996    0.00360000
opls_916-371    C    0.53617975    0.50000000    0.04758996    0.00360000
opls_916-372    C    0.03617975    0.00000000    0.95241004    0.00360000
opls_916-373    C    0.53617975    0.50000000    0.95241004    0.00360000
opls_916-374    C    0.96382025    0.00000000    0.95241004    0.00360000
opls_916-375    C    0.46382025    0.50000000    0.95241004    0.00360000
opls_727-376    C    0.92813017    0.00000000    0.00000000    0.22370000
opls_727-377    C    0.42813017    0.50000000    0.00000000    0.22370000
opls_727-378    C    0.07186983    0.00000000    0.00000000    0.22380000
opls_727-379    C    0.57186983    0.50000000    0.00000000    0.22370000
opls_750-380    N    0.14994990    0.35436999    0.72765985    -0.24400000
opls_750-381    N    0.64994990    0.85436999    0.72765985    -0.24400000
opls_750-382    N    0.85005010    0.64563001    0.72765985    -0.24390000
opls_750-383    N    0.35005010    0.14563001    0.72765985    -0.24400000
opls_750-384    N    0.85005010    0.35436999    0.27234015    -0.24400000
opls_750-385    N    0.35005010    0.85436999    0.27234015    -0.24400000
opls_750-386    N    0.14994990    0.64563001    0.27234015    -0.24400000
opls_750-387    N    0.64994990    0.14563001    0.27234015    -0.24400000
opls_750-388    N    0.85005010    0.64563001    0.27234015    -0.24400000
opls_750-389    N    0.35005010    0.14563001    0.27234015    -0.24400000
opls_750-390    N    0.14994990    0.35436999    0.27234015    -0.24400000
opls_750-391    N    0.64994990    0.85436999    0.27234015    -0.24400000
opls_750-392    N    0.14994990    0.64563001    0.72765985    -0.24400000
opls_750-393    N    0.64994990    0.14563001    0.72765985    -0.24400000
opls_750-394    N    0.85005010    0.35436999    0.72765985    -0.24400000
opls_750-395    N    0.35005010    0.85436999    0.72765985    -0.24390000
opls_239-396    N    0.92675981    0.00000000    0.09618996    -0.12020000
opls_239-397    N    0.42675981    0.50000000    0.09618996    -0.12010000
opls_239-398    N    0.07324019    0.00000000    0.09618996    -0.12010000
opls_239-399    N    0.57324019    0.50000000    0.09618996    -0.12020000
opls_239-400    N    0.07324019    0.00000000    0.90381004    -0.12020000
opls_239-401    N    0.57324019    0.50000000    0.90381004    -0.12020000
opls_239-402    N    0.92675981    0.00000000    0.90381004    -0.12020000
opls_239-403    N    0.42675981    0.50000000    0.90381004    -0.12010000
opls_146-404    H    0.21408006    0.35963001    0.87114015    0.04940000
opls_146-405    H    0.29349019    0.39388005    0.89948996    0.04940000
opls_146-406    H    0.23100981    0.43782008    0.76484015    0.04940000
opls_146-407    H    0.15472986    0.40278003    0.73468996    0.04940000
opls_146-408    H    0.35238998    0.44705001    0.77208996    0.04940000
opls_146-409    H    0.42789979    0.48199004    0.80414981    0.04940000
opls_146-410    H    0.37135021    0.46336999    0.96301004    0.04950000
opls_146-411    H    0.29419008    0.43000000    0.93187992    0.04940000
opls_144-412    H    0.14175981    0.33984001    0.80304015    0.02920000
opls_146-413    H    0.07391994    0.33545008    0.64964015    0.04940000
opls_146-414    H    0.10757025    0.29758996    0.59744015    0.04940000
opls_146-415    H    0.29330992    0.28836999    0.69338996    0.04940000
opls_146-416    H    0.25569990    0.32430006    0.74848996    0.04940000
opls_146-417    H    0.28989979    0.18858000    0.54781004    0.04940000
opls_146-418    H    0.71408006    0.85963001    0.87114015    0.04940000
opls_146-419    H    0.79349019    0.89388005    0.89948996    0.04940000
opls_146-420    H    0.73100981    0.93782008    0.76484015    0.04940000
opls_146-421    H    0.65472986    0.90278003    0.73468996    0.04940000
opls_146-422    H    0.85238998    0.94705001    0.77208996    0.04940000
opls_146-423    H    0.92789979    0.98199004    0.80414981    0.04940000
opls_146-424    H    0.87135021    0.96336999    0.96301004    0.04940000
opls_146-425    H    0.79419008    0.93000000    0.93187992    0.04940000
opls_144-426    H    0.64175981    0.83984001    0.80304015    0.02920000
opls_146-427    H    0.57391994    0.83545008    0.64964015    0.04940000
opls_146-428    H    0.60757025    0.79758996    0.59744015    0.04940000
opls_146-429    H    0.79330992    0.78836999    0.69338996    0.04940000
opls_146-430    H    0.75569990    0.82430006    0.74848996    0.04940000
opls_146-431    H    0.78989979    0.68858000    0.54781004    0.04940000
opls_146-432    H    0.78591994    0.64036999    0.87114015    0.04940000
opls_146-433    H    0.70650981    0.60611995    0.89948996    0.04940000
opls_146-434    H    0.76899019    0.56217992    0.76484015    0.04940000
opls_146-435    H    0.84527014    0.59721997    0.73468996    0.04950000
opls_146-436    H    0.64761002    0.55294999    0.77208996    0.04940000
opls_146-437    H    0.57210021    0.51800996    0.80414981    0.04940000
opls_146-438    H    0.62864979    0.53663001    0.96301004    0.04940000
opls_146-439    H    0.70580992    0.57000000    0.93187992    0.04940000
opls_144-440    H    0.85824019    0.66015999    0.80304015    0.02920000
opls_146-441    H    0.92608006    0.66454992    0.64964015    0.04940000
opls_146-442    H    0.89242975    0.70241004    0.59744015    0.04940000
opls_146-443    H    0.70669008    0.71163001    0.69338996    0.04940000
opls_146-444    H    0.74430010    0.67569994    0.74848996    0.04940000
opls_146-445    H    0.71010021    0.81142000    0.54781004    0.04940000
opls_146-446    H    0.28591994    0.14036999    0.87114015    0.04940000
opls_146-447    H    0.20650981    0.10611995    0.89948996    0.04940000
opls_146-448    H    0.26899019    0.06217992    0.76484015    0.04950000
opls_146-449    H    0.34527014    0.09721997    0.73468996    0.04940000
opls_146-450    H    0.14761002    0.05294999    0.77208996    0.04940000
opls_146-451    H    0.07210021    0.01800996    0.80414981    0.04940000
opls_146-452    H    0.12864979    0.03663001    0.96301004    0.04940000
opls_146-453    H    0.20580992    0.07000000    0.93187992    0.04950000
opls_144-454    H    0.35824019    0.16015999    0.80304015    0.02920000
opls_146-455    H    0.42608006    0.16454992    0.64964015    0.04940000
opls_146-456    H    0.39242975    0.20241004    0.59744015    0.04940000
opls_146-457    H    0.20669008    0.21163001    0.69338996    0.04940000
opls_146-458    H    0.24430010    0.17569994    0.74848996    0.04940000
opls_146-459    H    0.21010021    0.31142000    0.54781004    0.04940000
opls_146-460    H    0.78591994    0.35963001    0.12885985    0.04940000
opls_146-461    H    0.70650981    0.39388005    0.10051004    0.04940000
opls_146-462    H    0.76899019    0.43782008    0.23515985    0.04940000
opls_146-463    H    0.84527014    0.40278003    0.26531004    0.04940000
opls_146-464    H    0.64761002    0.44705001    0.22791004    0.04940000
opls_146-465    H    0.57210021    0.48199004    0.19585019    0.04940000
opls_146-466    H    0.62864979    0.46336999    0.03698996    0.04940000
opls_146-467    H    0.70580992    0.43000000    0.06812008    0.04940000
opls_144-468    H    0.85824019    0.33984001    0.19695985    0.02920000
opls_146-469    H    0.92608006    0.33545008    0.35035985    0.04940000
opls_146-470    H    0.89242975    0.29758996    0.40255985    0.04940000
opls_146-471    H    0.70669008    0.28836999    0.30661004    0.04940000
opls_146-472    H    0.74430010    0.32430006    0.25151004    0.04940000
opls_146-473    H    0.71010021    0.18858000    0.45218996    0.04940000
opls_146-474    H    0.28591994    0.85963001    0.12885985    0.04940000
opls_146-475    H    0.20650981    0.89388005    0.10051004    0.04940000
opls_146-476    H    0.26899019    0.93782008    0.23515985    0.04940000
opls_146-477    H    0.34527014    0.90278003    0.26531004    0.04940000
opls_146-478    H    0.14761002    0.94705001    0.22791004    0.04940000
opls_146-479    H    0.07210021    0.98199004    0.19585019    0.04940000
opls_146-480    H    0.12864979    0.96336999    0.03698996    0.04940000
opls_146-481    H    0.20580992    0.93000000    0.06812008    0.04940000
opls_144-482    H    0.35824019    0.83984001    0.19695985    0.02920000
opls_146-483    H    0.42608006    0.83545008    0.35035985    0.04940000
opls_146-484    H    0.39242975    0.79758996    0.40255985    0.04940000
opls_146-485    H    0.20669008    0.78836999    0.30661004    0.04940000
opls_146-486    H    0.24430010    0.82430006    0.25151004    0.04940000
opls_146-487    H    0.21010021    0.68858000    0.45218996    0.04940000
opls_146-488    H    0.21408006    0.64036999    0.12885985    0.04940000
opls_146-489    H    0.29349019    0.60611995    0.10051004    0.04940000
opls_146-490    H    0.23100981    0.56217992    0.23515985    0.04950000
opls_146-491    H    0.15472986    0.59721997    0.26531004    0.04940000
opls_146-492    H    0.35238998    0.55294999    0.22791004    0.04940000
opls_146-493    H    0.42789979    0.51800996    0.19585019    0.04940000
opls_146-494    H    0.37135021    0.53663001    0.03698996    0.04940000
opls_146-495    H    0.29419008    0.57000000    0.06812008    0.04940000
opls_144-496    H    0.14175981    0.66015999    0.19695985    0.02920000
opls_146-497    H    0.07391994    0.66454992    0.35035985    0.04940000
opls_146-498    H    0.10757025    0.70241004    0.40255985    0.04940000
opls_146-499    H    0.29330992    0.71163001    0.30661004    0.04940000
opls_146-500    H    0.25569990    0.67569994    0.25151004    0.04940000
opls_146-501    H    0.28989979    0.81142000    0.45218996    0.04940000
opls_146-502    H    0.71408006    0.14036999    0.12885985    0.04940000
opls_146-503    H    0.79349019    0.10611995    0.10051004    0.04940000
opls_146-504    H    0.73100981    0.06217992    0.23515985    0.04940000
opls_146-505    H    0.65472986    0.09721997    0.26531004    0.04940000
opls_146-506    H    0.85238998    0.05294999    0.22791004    0.04940000
opls_146-507    H    0.92789979    0.01800996    0.19585019    0.04940000
opls_146-508    H    0.87135021    0.03663001    0.03698996    0.04940000
opls_146-509    H    0.79419008    0.07000000    0.06812008    0.04940000
opls_144-510    H    0.64175981    0.16015999    0.19695985    0.02920000
opls_146-511    H    0.57391994    0.16454992    0.35035985    0.04940000
opls_146-512    H    0.60757025    0.20241004    0.40255985    0.04940000
opls_146-513    H    0.79330992    0.21163001    0.30661004    0.04940000
opls_146-514    H    0.75569990    0.17569994    0.25151004    0.04950000
opls_146-515    H    0.78989979    0.31142000    0.45218996    0.04940000
opls_146-516    H    0.78591994    0.64036999    0.12885985    0.04940000
opls_146-517    H    0.70650981    0.60611995    0.10051004    0.04940000
opls_146-518    H    0.76899019    0.56217992    0.23515985    0.04940000
opls_146-519    H    0.84527014    0.59721997    0.26531004    0.04940000
opls_146-520    H    0.64761002    0.55294999    0.22791004    0.04940000
opls_146-521    H    0.57210021    0.51800996    0.19585019    0.04940000
opls_146-522    H    0.62864979    0.53663001    0.03698996    0.04940000
opls_146-523    H    0.70580992    0.57000000    0.06812008    0.04940000
opls_144-524    H    0.85824019    0.66015999    0.19695985    0.02920000
opls_146-525    H    0.92608006    0.66454992    0.35035985    0.04940000
opls_146-526    H    0.89242975    0.70241004    0.40255985    0.04940000
opls_146-527    H    0.70669008    0.71163001    0.30661004    0.04940000
opls_146-528    H    0.74430010    0.67569994    0.25151004    0.04940000
opls_146-529    H    0.71010021    0.81142000    0.45218996    0.04940000
opls_146-530    H    0.28591994    0.14036999    0.12885985    0.04940000
opls_146-531    H    0.20650981    0.10611995    0.10051004    0.04940000
opls_146-532    H    0.26899019    0.06217992    0.23515985    0.04940000
opls_146-533    H    0.34527014    0.09721997    0.26531004    0.04940000
opls_146-534    H    0.14761002    0.05294999    0.22791004    0.04940000
opls_146-535    H    0.07210021    0.01800996    0.19585019    0.04940000
opls_146-536    H    0.12864979    0.03663001    0.03698996    0.04940000
opls_146-537    H    0.20580992    0.07000000    0.06812008    0.04940000
opls_144-538    H    0.35824019    0.16015999    0.19695985    0.02920000
opls_146-539    H    0.42608006    0.16454992    0.35035985    0.04940000
opls_146-540    H    0.39242975    0.20241004    0.40255985    0.04940000
opls_146-541    H    0.20669008    0.21163001    0.30661004    0.04940000
opls_146-542    H    0.24430010    0.17569994    0.25151004    0.04940000
opls_146-543    H    0.21010021    0.31142000    0.45218996    0.04940000
opls_146-544    H    0.21408006    0.35963001    0.12885985    0.04940000
opls_146-545    H    0.29349019    0.39388005    0.10051004    0.04940000
opls_146-546    H    0.23100981    0.43782008    0.23515985    0.04940000
opls_146-547    H    0.15472986    0.40278003    0.26531004    0.04940000
opls_146-548    H    0.35238998    0.44705001    0.22791004    0.04940000
opls_146-549    H    0.42789979    0.48199004    0.19585019    0.04940000
opls_146-550    H    0.37135021    0.46336999    0.03698996    0.04940000
opls_146-551    H    0.29419008    0.43000000    0.06812008    0.04940000
opls_144-552    H    0.14175981    0.33984001    0.19695985    0.02930000
opls_146-553    H    0.07391994    0.33545008    0.35035985    0.04940000
opls_146-554    H    0.10757025    0.29758996    0.40255985    0.04940000
opls_146-555    H    0.29330992    0.28836999    0.30661004    0.04940000
opls_146-556    H    0.25569990    0.32430006    0.25151004    0.04940000
opls_146-557    H    0.28989979    0.18858000    0.45218996    0.04940000
opls_146-558    H    0.71408006    0.85963001    0.12885985    0.04940000
opls_146-559    H    0.79349019    0.89388005    0.10051004    0.04940000
opls_146-560    H    0.73100981    0.93782008    0.23515985    0.04940000
opls_146-561    H    0.65472986    0.90278003    0.26531004    0.04940000
opls_146-562    H    0.85238998    0.94705001    0.22791004    0.04940000
opls_146-563    H    0.92789979    0.98199004    0.19585019    0.04940000
opls_146-564    H    0.87135021    0.96336999    0.03698996    0.04940000
opls_146-565    H    0.79419008    0.93000000    0.06812008    0.04940000
opls_144-566    H    0.64175981    0.83984001    0.19695985    0.02920000
opls_146-567    H    0.57391994    0.83545008    0.35035985    0.04940000
opls_146-568    H    0.60757025    0.79758996    0.40255985    0.04940000
opls_146-569    H    0.79330992    0.78836999    0.30661004    0.04940000
opls_146-570    H    0.75569990    0.82430006    0.25151004    0.04940000
opls_146-571    H    0.78989979    0.68858000    0.45218996    0.04940000
opls_146-572    H    0.21408006    0.64036999    0.87114015    0.04950000
opls_146-573    H    0.29349019    0.60611995    0.89948996    0.04950000
opls_146-574    H    0.23100981    0.56217992    0.76484015    0.04940000
opls_146-575    H    0.15472986    0.59721997    0.73468996    0.04940000
opls_146-576    H    0.35238998    0.55294999    0.77208996    0.04940000
opls_146-577    H    0.42789979    0.51800996    0.80414981    0.04940000
opls_146-578    H    0.37135021    0.53663001    0.96301004    0.04940000
opls_146-579    H    0.29419008    0.57000000    0.93187992    0.04940000
opls_144-580    H    0.14175981    0.66015999    0.80304015    0.02920000
opls_146-581    H    0.07391994    0.66454992    0.64964015    0.04940000
opls_146-582    H    0.10757025    0.70241004    0.59744015    0.04940000
opls_146-583    H    0.29330992    0.71163001    0.69338996    0.04940000
opls_146-584    H    0.25569990    0.67569994    0.74848996    0.04940000
opls_146-585    H    0.28989979    0.81142000    0.54781004    0.04940000
opls_146-586    H    0.71408006    0.14036999    0.87114015    0.04940000
opls_146-587    H    0.79349019    0.10611995    0.89948996    0.04940000
opls_146-588    H    0.73100981    0.06217992    0.76484015    0.04940000
opls_146-589    H    0.65472986    0.09721997    0.73468996    0.04940000
opls_146-590    H    0.85238998    0.05294999    0.77208996    0.04940000
opls_146-591    H    0.92789979    0.01800996    0.80414981    0.04940000
opls_146-592    H    0.87135021    0.03663001    0.96301004    0.04940000
opls_146-593    H    0.79419008    0.07000000    0.93187992    0.04940000
opls_144-594    H    0.64175981    0.16015999    0.80304015    0.02920000
opls_146-595    H    0.57391994    0.16454992    0.64964015    0.04950000
opls_146-596    H    0.60757025    0.20241004    0.59744015    0.04940000
opls_146-597    H    0.79330992    0.21163001    0.69338996    0.04940000
opls_146-598    H    0.75569990    0.17569994    0.74848996    0.04940000
opls_146-599    H    0.78989979    0.31142000    0.54781004    0.04940000
opls_146-600    H    0.78591994    0.35963001    0.87114015    0.04940000
opls_146-601    H    0.70650981    0.39388005    0.89948996    0.04940000
opls_146-602    H    0.76899019    0.43782008    0.76484015    0.04940000
opls_146-603    H    0.84527014    0.40278003    0.73468996    0.04940000
opls_146-604    H    0.64761002    0.44705001    0.77208996    0.04940000
opls_146-605    H    0.57210021    0.48199004    0.80414981    0.04940000
opls_146-606    H    0.62864979    0.46336999    0.96301004    0.04940000
opls_146-607    H    0.70580992    0.43000000    0.93187992    0.04940000
opls_144-608    H    0.85824019    0.33984001    0.80304015    0.02920000
opls_146-609    H    0.92608006    0.33545008    0.64964015    0.04950000
opls_146-610    H    0.89242975    0.29758996    0.59744015    0.04940000
opls_146-611    H    0.70669008    0.28836999    0.69338996    0.04940000
opls_146-612    H    0.74430010    0.32430006    0.74848996    0.04950000
opls_146-613    H    0.71010021    0.18858000    0.54781004    0.04940000
opls_146-614    H    0.28591994    0.85963001    0.87114015    0.04940000
opls_146-615    H    0.20650981    0.89388005    0.89948996    0.04940000
opls_146-616    H    0.26899019    0.93782008    0.76484015    0.04940000
opls_146-617    H    0.34527014    0.90278003    0.73468996    0.04940000
opls_146-618    H    0.14761002    0.94705001    0.77208996    0.04940000
opls_146-619    H    0.07210021    0.98199004    0.80414981    0.04940000
opls_146-620    H    0.12864979    0.96336999    0.96301004    0.04940000
opls_146-621    H    0.20580992    0.93000000    0.93187992    0.04940000
opls_144-622    H    0.35824019    0.83984001    0.80304015    0.02920000
opls_146-623    H    0.42608006    0.83545008    0.64964015    0.04950000
opls_146-624    H    0.39242975    0.79758996    0.59744015    0.04940000
opls_146-625    H    0.20669008    0.78836999    0.69338996    0.04940000
opls_146-626    H    0.24430010    0.82430006    0.74848996    0.04940000
opls_146-627    H    0.21010021    0.68858000    0.54781004    0.04940000
opls_719-628    F    0.35766994    0.50000000    0.00000000    -0.09790000
opls_719-629    F    0.85766994    0.00000000    0.00000000    -0.09790000
opls_719-630    F    0.64233006    0.50000000    0.00000000    -0.09790000
opls_719-631    F    0.14233006    0.00000000    0.00000000    -0.09790000
