#======================================================================
# Crystal Data Generated By AuToFF
#----------------------------------------------------------------------

data_AuToFF_phase_1

_cell_length_a                         36.4595
_cell_length_b                         23.5469
_cell_length_c                         7.0923
_cell_angle_alpha                      90.00
_cell_angle_beta                       90.00
_cell_angle_gamma                      90.00
_symmetry_space_group_name_H-M_alt     'P 1'
_symmetry_space_group_IT_number        1

loop_
_space_group_symop_operation_xyz
   'x, y, z'

loop_
   _atom_site_label
   _atom_site_type_symbol
   _atom_site_fract_x
   _atom_site_fract_y
   _atom_site_fract_z
   _atom_site_charge
opls_145-0    C    0.48126003    0.60380984    0.27608956    -0.12400000
opls_700-1    C    0.46049013    0.55273008    0.24095004    0.02900000
opls_700-2    C    0.42156009    0.55242006    0.21647984    0.03710000
opls_700-3    C    0.40000000    0.60654014    0.20823992    0.06950000
opls_145-4    C    0.41107997    0.65271012    0.09400054    -0.12560000
opls_145-5    C    0.39375993    0.70526014    0.10653949    -0.17920000
opls_145-6    C    0.36304009    0.71305989    0.22528940    0.19520000
opls_145-7    C    0.35029992    0.66584986    0.33008051    -0.17520000
opls_145-8    C    0.36872009    0.61402987    0.32296998    -0.12530000
opls_523-9    C    0.26335002    0.15633013    0.36879010    -0.12740000
opls_700-10    C    0.30069008    0.16370987    0.32434048    0.05830000
opls_523-11    C    0.32230009    0.11409995    0.30195000    -0.12120000
opls_522-12    C    0.30655001    0.05999983    0.30764068    -0.03520000
opls_521-13    C    0.26803988    0.05308979    0.33465025    0.11060000
opls_522-14    C    0.24740987    0.10263984    0.37438067    -0.17890000
opls_142-15    C    0.31525007    0.22133996    0.29785965    0.02950000
opls_700-16    C    0.48021010    0.50000000    0.24152955    -0.03410000
opls_145-17    C    0.40328995    0.50000000    0.20219957    -0.16500000
opls_905-18    C    0.21007995    0.00000000    0.29304034    -0.28350000
opls_145-19    C    0.51873997    0.39619016    0.27608956    -0.12400000
opls_700-20    C    0.53950987    0.44726992    0.24095004    0.02900000
opls_700-21    C    0.57843991    0.44757994    0.21647984    0.03710000
opls_700-22    C    0.60000000    0.39345986    0.20823992    0.06950000
opls_145-23    C    0.58892003    0.34728988    0.09400054    -0.12560000
opls_145-24    C    0.60624007    0.29473986    0.10653949    -0.17920000
opls_145-25    C    0.63695991    0.28694011    0.22528940    0.19520000
opls_145-26    C    0.64970008    0.33415014    0.33008051    -0.17520000
opls_145-27    C    0.63127991    0.38597013    0.32296998    -0.12530000
opls_523-28    C    0.73664998    0.84366987    0.36879010    -0.12760000
opls_700-29    C    0.69930992    0.83629013    0.32434048    0.05840000
opls_523-30    C    0.67769991    0.88590005    0.30195000    -0.12120000
opls_522-31    C    0.69344999    0.94000017    0.30764068    -0.03520000
opls_521-32    C    0.73196012    0.94691021    0.33465025    0.11060000
opls_522-33    C    0.75259013    0.89736016    0.37438067    -0.17890000
opls_142-34    C    0.68474993    0.77866004    0.29785965    0.02950000
opls_700-35    C    0.51978990    0.50000000    0.24152955    -0.03410000
opls_145-36    C    0.59671005    0.50000000    0.20219957    -0.16490000
opls_905-37    C    0.78992005    0.00000000    0.29304034    -0.28350000
opls_145-38    C    0.48126003    0.39619016    0.27608956    -0.12400000
opls_700-39    C    0.46049013    0.44726992    0.24095004    0.02900000
opls_700-40    C    0.42156009    0.44757994    0.21647984    0.03710000
opls_700-41    C    0.40000000    0.39345986    0.20823992    0.06950000
opls_145-42    C    0.41107997    0.34728988    0.09400054    -0.12560000
opls_145-43    C    0.39375993    0.29473986    0.10653949    -0.17910000
opls_145-44    C    0.36304009    0.28694011    0.22528940    0.19520000
opls_145-45    C    0.35029992    0.33415014    0.33008051    -0.17520000
opls_145-46    C    0.36872009    0.38597013    0.32296998    -0.12530000
opls_523-47    C    0.26335002    0.84366987    0.36879010    -0.12760000
opls_700-48    C    0.30069008    0.83629013    0.32434048    0.05830000
opls_523-49    C    0.32230009    0.88590005    0.30195000    -0.12110000
opls_522-50    C    0.30655001    0.94000017    0.30764068    -0.03520000
opls_521-51    C    0.26803988    0.94691021    0.33465025    0.11060000
opls_522-52    C    0.24740987    0.89736016    0.37438067    -0.17890000
opls_142-53    C    0.31525007    0.77866004    0.29785965    0.02950000
opls_145-54    C    0.51873997    0.60380984    0.27608956    -0.12400000
opls_700-55    C    0.53950987    0.55273008    0.24095004    0.02900000
opls_700-56    C    0.57843991    0.55242006    0.21647984    0.03710000
opls_700-57    C    0.60000000    0.60654014    0.20823992    0.06950000
opls_145-58    C    0.58892003    0.65271012    0.09400054    -0.12560000
opls_145-59    C    0.60624007    0.70526014    0.10653949    -0.17910000
opls_145-60    C    0.63695991    0.71305989    0.22528940    0.19520000
opls_145-61    C    0.64970008    0.66584986    0.33008051    -0.17520000
opls_145-62    C    0.63127991    0.61402987    0.32296998    -0.12530000
opls_523-63    C    0.73664998    0.15633013    0.36879010    -0.12750000
opls_700-64    C    0.69930992    0.16370987    0.32434048    0.05830000
opls_523-65    C    0.67769991    0.11409995    0.30195000    -0.12120000
opls_522-66    C    0.69344999    0.05999983    0.30764068    -0.03520000
opls_521-67    C    0.73196012    0.05308979    0.33465025    0.11060000
opls_522-68    C    0.75259013    0.10263984    0.37438067    -0.17890000
opls_142-69    C    0.68474993    0.22133996    0.29785965    0.02950000
opls_145-70    C    0.48126003    0.10380984    0.77608956    -0.12400000
opls_700-71    C    0.46049013    0.05273008    0.74095004    0.02900000
opls_700-72    C    0.42156009    0.05242006    0.71647984    0.03710000
opls_700-73    C    0.40000000    0.10654014    0.70823992    0.06960000
opls_145-74    C    0.41107997    0.15271012    0.59400054    -0.12560000
opls_145-75    C    0.39375993    0.20526014    0.60653949    -0.17920000
opls_145-76    C    0.36304009    0.21305989    0.72528940    0.19520000
opls_145-77    C    0.35029992    0.16584986    0.83008051    -0.17520000
opls_145-78    C    0.36872009    0.11402987    0.82296998    -0.12530000
opls_523-79    C    0.26335002    0.65633013    0.86879010    -0.12760000
opls_700-80    C    0.30069008    0.66370987    0.82434048    0.05830000
opls_523-81    C    0.32230009    0.61409995    0.80195000    -0.12110000
opls_522-82    C    0.30655001    0.55999983    0.80764068    -0.03520000
opls_521-83    C    0.26803988    0.55308979    0.83465025    0.11060000
opls_522-84    C    0.24740987    0.60263984    0.87438067    -0.17890000
opls_142-85    C    0.31525007    0.72133996    0.79785965    0.02950000
opls_700-86    C    0.48021010    0.00000000    0.74152955    -0.03410000
opls_145-87    C    0.40328995    0.00000000    0.70219957    -0.16500000
opls_905-88    C    0.21007995    0.50000000    0.79304034    -0.28350000
opls_145-89    C    0.51873997    0.89619016    0.77608956    -0.12400000
opls_700-90    C    0.53950987    0.94726992    0.74095004    0.02900000
opls_700-91    C    0.57843991    0.94757994    0.71647984    0.03710000
opls_700-92    C    0.60000000    0.89345986    0.70823992    0.06950000
opls_145-93    C    0.58892003    0.84728988    0.59400054    -0.12560000
opls_145-94    C    0.60624007    0.79473986    0.60653949    -0.17920000
opls_145-95    C    0.63695991    0.78694011    0.72528940    0.19520000
opls_145-96    C    0.64970008    0.83415014    0.83008051    -0.17520000
opls_145-97    C    0.63127991    0.88597013    0.82296998    -0.12530000
opls_523-98    C    0.73664998    0.34366987    0.86879010    -0.12760000
opls_700-99    C    0.69930992    0.33629013    0.82434048    0.05830000
opls_523-100    C    0.67769991    0.38590005    0.80195000    -0.12120000
opls_522-101    C    0.69344999    0.44000017    0.80764068    -0.03520000
opls_521-102    C    0.73196012    0.44691021    0.83465025    0.11060000
opls_522-103    C    0.75259013    0.39736016    0.87438067    -0.17890000
opls_142-104    C    0.68474993    0.27866004    0.79785965    0.02950000
opls_700-105    C    0.51978990    0.00000000    0.74152955    -0.03400000
opls_145-106    C    0.59671005    0.00000000    0.70219957    -0.16490000
opls_905-107    C    0.78992005    0.50000000    0.79304034    -0.28350000
opls_145-108    C    0.48126003    0.89619016    0.77608956    -0.12400000
opls_700-109    C    0.46049013    0.94726992    0.74095004    0.02900000
opls_700-110    C    0.42156009    0.94757994    0.71647984    0.03710000
opls_700-111    C    0.40000000    0.89345986    0.70823992    0.06950000
opls_145-112    C    0.41107997    0.84728988    0.59400054    -0.12560000
opls_145-113    C    0.39375993    0.79473986    0.60653949    -0.17920000
opls_145-114    C    0.36304009    0.78694011    0.72528940    0.19520000
opls_145-115    C    0.35029992    0.83415014    0.83008051    -0.17520000
opls_145-116    C    0.36872009    0.88597013    0.82296998    -0.12530000
opls_523-117    C    0.26335002    0.34366987    0.86879010    -0.12760000
opls_700-118    C    0.30069008    0.33629013    0.82434048    0.05830000
opls_523-119    C    0.32230009    0.38590005    0.80195000    -0.12120000
opls_522-120    C    0.30655001    0.44000017    0.80764068    -0.03520000
opls_521-121    C    0.26803988    0.44691021    0.83465025    0.11060000
opls_522-122    C    0.24740987    0.39736016    0.87438067    -0.17890000
opls_142-123    C    0.31525007    0.27866004    0.79785965    0.02950000
opls_145-124    C    0.51873997    0.10380984    0.77608956    -0.12400000
opls_700-125    C    0.53950987    0.05273008    0.74095004    0.02900000
opls_700-126    C    0.57843991    0.05242006    0.71647984    0.03710000
opls_700-127    C    0.60000000    0.10654014    0.70823992    0.06950000
opls_145-128    C    0.58892003    0.15271012    0.59400054    -0.12560000
opls_145-129    C    0.60624007    0.20526014    0.60653949    -0.17920000
opls_145-130    C    0.63695991    0.21305989    0.72528940    0.19520000
opls_145-131    C    0.64970008    0.16584986    0.83008051    -0.17520000
opls_145-132    C    0.63127991    0.11402987    0.82296998    -0.12520000
opls_523-133    C    0.73664998    0.65633013    0.86879010    -0.12760000
opls_700-134    C    0.69930992    0.66370987    0.82434048    0.05830000
opls_523-135    C    0.67769991    0.61409995    0.80195000    -0.12120000
opls_522-136    C    0.69344999    0.55999983    0.80764068    -0.03520000
opls_521-137    C    0.73196012    0.55308979    0.83465025    0.11060000
opls_522-138    C    0.75259013    0.60263984    0.87438067    -0.17890000
opls_142-139    C    0.68474993    0.72133996    0.79785965    0.02950000
opls_145-140    C    0.98126003    0.60380984    0.77608956    -0.12400000
opls_700-141    C    0.96049013    0.55273008    0.74095004    0.02900000
opls_700-142    C    0.92156009    0.55242006    0.71647984    0.03710000
opls_700-143    C    0.90000000    0.60654014    0.70823992    0.06950000
opls_145-144    C    0.91107997    0.65271012    0.59400054    -0.12560000
opls_145-145    C    0.89375993    0.70526014    0.60653949    -0.17920000
opls_145-146    C    0.86304009    0.71305989    0.72528940    0.19520000
opls_145-147    C    0.85029992    0.66584986    0.83008051    -0.17520000
opls_145-148    C    0.86872009    0.61402987    0.82296998    -0.12530000
opls_523-149    C    0.76335002    0.15633013    0.86879010    -0.12760000
opls_700-150    C    0.80069008    0.16370987    0.82434048    0.05830000
opls_523-151    C    0.82230009    0.11409995    0.80195000    -0.12120000
opls_522-152    C    0.80655001    0.05999983    0.80764068    -0.03520000
opls_521-153    C    0.76803988    0.05308979    0.83465025    0.11060000
opls_522-154    C    0.74740987    0.10263984    0.87438067    -0.17890000
opls_142-155    C    0.81525007    0.22133996    0.79785965    0.02950000
opls_700-156    C    0.98021010    0.50000000    0.74152955    -0.03410000
opls_145-157    C    0.90328995    0.50000000    0.70219957    -0.16500000
opls_905-158    C    0.71007995    0.00000000    0.79304034    -0.28340000
opls_145-159    C    0.01873997    0.39619016    0.77608956    -0.12400000
opls_700-160    C    0.03950987    0.44726992    0.74095004    0.02900000
opls_700-161    C    0.07843991    0.44757994    0.71647984    0.03710000
opls_700-162    C    0.10000000    0.39345986    0.70823992    0.06950000
opls_145-163    C    0.08892003    0.34728988    0.59400054    -0.12560000
opls_145-164    C    0.10624007    0.29473986    0.60653949    -0.17920000
opls_145-165    C    0.13695991    0.28694011    0.72528940    0.19520000
opls_145-166    C    0.14970008    0.33415014    0.83008051    -0.17520000
opls_145-167    C    0.13127991    0.38597013    0.82296998    -0.12530000
opls_523-168    C    0.23664998    0.84366987    0.86879010    -0.12760000
opls_700-169    C    0.19930992    0.83629013    0.82434048    0.05830000
opls_523-170    C    0.17769991    0.88590005    0.80195000    -0.12120000
opls_522-171    C    0.19344999    0.94000017    0.80764068    -0.03520000
opls_521-172    C    0.23196012    0.94691021    0.83465025    0.11060000
opls_522-173    C    0.25259013    0.89736016    0.87438067    -0.17890000
opls_142-174    C    0.18474993    0.77866004    0.79785965    0.02950000
opls_700-175    C    0.01978990    0.50000000    0.74152955    -0.03410000
opls_145-176    C    0.09671005    0.50000000    0.70219957    -0.16500000
opls_905-177    C    0.28992005    0.00000000    0.79304034    -0.28350000
opls_145-178    C    0.98126003    0.39619016    0.77608956    -0.12400000
opls_700-179    C    0.96049013    0.44726992    0.74095004    0.02900000
opls_700-180    C    0.92156009    0.44757994    0.71647984    0.03710000
opls_700-181    C    0.90000000    0.39345986    0.70823992    0.06960000
opls_145-182    C    0.91107997    0.34728988    0.59400054    -0.12560000
opls_145-183    C    0.89375993    0.29473986    0.60653949    -0.17910000
opls_145-184    C    0.86304009    0.28694011    0.72528940    0.19520000
opls_145-185    C    0.85029992    0.33415014    0.83008051    -0.17520000
opls_145-186    C    0.86872009    0.38597013    0.82296998    -0.12530000
opls_523-187    C    0.76335002    0.84366987    0.86879010    -0.12760000
opls_700-188    C    0.80069008    0.83629013    0.82434048    0.05830000
opls_523-189    C    0.82230009    0.88590005    0.80195000    -0.12120000
opls_522-190    C    0.80655001    0.94000017    0.80764068    -0.03520000
opls_521-191    C    0.76803988    0.94691021    0.83465025    0.11060000
opls_522-192    C    0.74740987    0.89736016    0.87438067    -0.17880000
opls_142-193    C    0.81525007    0.77866004    0.79785965    0.02950000
opls_145-194    C    0.01873997    0.60380984    0.77608956    -0.12400000
opls_700-195    C    0.03950987    0.55273008    0.74095004    0.02900000
opls_700-196    C    0.07843991    0.55242006    0.71647984    0.03710000
opls_700-197    C    0.10000000    0.60654014    0.70823992    0.06950000
opls_145-198    C    0.08892003    0.65271012    0.59400054    -0.12560000
opls_145-199    C    0.10624007    0.70526014    0.60653949    -0.17920000
opls_145-200    C    0.13695991    0.71305989    0.72528940    0.19520000
opls_145-201    C    0.14970008    0.66584986    0.83008051    -0.17520000
opls_145-202    C    0.13127991    0.61402987    0.82296998    -0.12530000
opls_523-203    C    0.23664998    0.15633013    0.86879010    -0.12760000
opls_700-204    C    0.19930992    0.16370987    0.82434048    0.05830000
opls_523-205    C    0.17769991    0.11409995    0.80195000    -0.12120000
opls_522-206    C    0.19344999    0.05999983    0.80764068    -0.03520000
opls_521-207    C    0.23196012    0.05308979    0.83465025    0.11060000
opls_522-208    C    0.25259013    0.10263984    0.87438067    -0.17880000
opls_142-209    C    0.18474993    0.22133996    0.79785965    0.02950000
opls_145-210    C    0.98126003    0.10380984    0.27608956    -0.12400000
opls_700-211    C    0.96049013    0.05273008    0.24095004    0.02900000
opls_700-212    C    0.92156009    0.05242006    0.21647984    0.03710000
opls_700-213    C    0.90000000    0.10654014    0.20823992    0.06950000
opls_145-214    C    0.91107997    0.15271012    0.09400054    -0.12550000
opls_145-215    C    0.89375993    0.20526014    0.10653949    -0.17920000
opls_145-216    C    0.86304009    0.21305989    0.22528940    0.19520000
opls_145-217    C    0.85029992    0.16584986    0.33008051    -0.17520000
opls_145-218    C    0.86872009    0.11402987    0.32296998    -0.12530000
opls_523-219    C    0.76335002    0.65633013    0.36879010    -0.12740000
opls_700-220    C    0.80069008    0.66370987    0.32434048    0.05840000
opls_523-221    C    0.82230009    0.61409995    0.30195000    -0.12120000
opls_522-222    C    0.80655001    0.55999983    0.30764068    -0.03520000
opls_521-223    C    0.76803988    0.55308979    0.33465025    0.11060000
opls_522-224    C    0.74740987    0.60263984    0.37438067    -0.17890000
opls_142-225    C    0.81525007    0.72133996    0.29785965    0.02950000
opls_700-226    C    0.98021010    0.00000000    0.24152955    -0.03410000
opls_145-227    C    0.90328995    0.00000000    0.20219957    -0.16500000
opls_905-228    C    0.71007995    0.50000000    0.29304034    -0.28350000
opls_145-229    C    0.01873997    0.89619016    0.27608956    -0.12390000
opls_700-230    C    0.03950987    0.94726992    0.24095004    0.02900000
opls_700-231    C    0.07843991    0.94757994    0.21647984    0.03710000
opls_700-232    C    0.10000000    0.89345986    0.20823992    0.06950000
opls_145-233    C    0.08892003    0.84728988    0.09400054    -0.12550000
opls_145-234    C    0.10624007    0.79473986    0.10653949    -0.17920000
opls_145-235    C    0.13695991    0.78694011    0.22528940    0.19520000
opls_145-236    C    0.14970008    0.83415014    0.33008051    -0.17520000
opls_145-237    C    0.13127991    0.88597013    0.32296998    -0.12530000
opls_523-238    C    0.23664998    0.34366987    0.36879010    -0.12760000
opls_700-239    C    0.19930992    0.33629013    0.32434048    0.05830000
opls_523-240    C    0.17769991    0.38590005    0.30195000    -0.12120000
opls_522-241    C    0.19344999    0.44000017    0.30764068    -0.03520000
opls_521-242    C    0.23196012    0.44691021    0.33465025    0.11060000
opls_522-243    C    0.25259013    0.39736016    0.37438067    -0.17890000
opls_142-244    C    0.18474993    0.27866004    0.29785965    0.02950000
opls_700-245    C    0.01978990    0.00000000    0.24152955    -0.03410000
opls_145-246    C    0.09671005    0.00000000    0.20219957    -0.16500000
opls_905-247    C    0.28992005    0.50000000    0.29304034    -0.28350000
opls_145-248    C    0.98126003    0.89619016    0.27608956    -0.12400000
opls_700-249    C    0.96049013    0.94726992    0.24095004    0.02900000
opls_700-250    C    0.92156009    0.94757994    0.21647984    0.03710000
opls_700-251    C    0.90000000    0.89345986    0.20823992    0.06950000
opls_145-252    C    0.91107997    0.84728988    0.09400054    -0.12560000
opls_145-253    C    0.89375993    0.79473986    0.10653949    -0.17920000
opls_145-254    C    0.86304009    0.78694011    0.22528940    0.19520000
opls_145-255    C    0.85029992    0.83415014    0.33008051    -0.17520000
opls_145-256    C    0.86872009    0.88597013    0.32296998    -0.12530000
opls_523-257    C    0.76335002    0.34366987    0.36879010    -0.12760000
opls_700-258    C    0.80069008    0.33629013    0.32434048    0.05830000
opls_523-259    C    0.82230009    0.38590005    0.30195000    -0.12120000
opls_522-260    C    0.80655001    0.44000017    0.30764068    -0.03520000
opls_521-261    C    0.76803988    0.44691021    0.33465025    0.11070000
opls_522-262    C    0.74740987    0.39736016    0.37438067    -0.17890000
opls_142-263    C    0.81525007    0.27866004    0.29785965    0.02950000
opls_145-264    C    0.01873997    0.10380984    0.27608956    -0.12400000
opls_700-265    C    0.03950987    0.05273008    0.24095004    0.02900000
opls_700-266    C    0.07843991    0.05242006    0.21647984    0.03720000
opls_700-267    C    0.10000000    0.10654014    0.20823992    0.06950000
opls_145-268    C    0.08892003    0.15271012    0.09400054    -0.12560000
opls_145-269    C    0.10624007    0.20526014    0.10653949    -0.17920000
opls_145-270    C    0.13695991    0.21305989    0.22528940    0.19520000
opls_145-271    C    0.14970008    0.16584986    0.33008051    -0.17520000
opls_145-272    C    0.13127991    0.11402987    0.32296998    -0.12530000
opls_523-273    C    0.23664998    0.65633013    0.36879010    -0.12750000
opls_700-274    C    0.19930992    0.66370987    0.32434048    0.05830000
opls_523-275    C    0.17769991    0.61409995    0.30195000    -0.12110000
opls_522-276    C    0.19344999    0.55999983    0.30764068    -0.03520000
opls_521-277    C    0.23196012    0.55308979    0.33465025    0.11060000
opls_522-278    C    0.25259013    0.60263984    0.37438067    -0.17890000
opls_142-279    C    0.18474993    0.72133996    0.29785965    0.02950000
opls_750-280    N    0.34868992    0.23145000    0.24408020    -0.29450000
opls_900-281    N    0.25003991    0.00000000    0.32203939    -0.07420000
opls_750-282    N    0.65131008    0.76855000    0.24408020    -0.29450000
opls_900-283    N    0.74996009    0.00000000    0.32203939    -0.07400000
opls_750-284    N    0.34868992    0.76855000    0.24408020    -0.29440000
opls_750-285    N    0.65131008    0.23145000    0.24408020    -0.29450000
opls_750-286    N    0.34868992    0.73145000    0.74408020    -0.29450000
opls_900-287    N    0.25003991    0.50000000    0.82203939    -0.07420000
opls_750-288    N    0.65131008    0.26855000    0.74408020    -0.29450000
opls_900-289    N    0.74996009    0.50000000    0.82203939    -0.07420000
opls_750-290    N    0.34868992    0.26855000    0.74408020    -0.29450000
opls_750-291    N    0.65131008    0.73145000    0.74408020    -0.29440000
opls_750-292    N    0.84868992    0.23145000    0.74408020    -0.29450000
opls_900-293    N    0.75003991    0.00000000    0.82203939    -0.07420000
opls_750-294    N    0.15131008    0.76855000    0.74408020    -0.29440000
opls_900-295    N    0.24996009    0.00000000    0.82203939    -0.07420000
opls_750-296    N    0.84868992    0.76855000    0.74408020    -0.29430000
opls_750-297    N    0.15131008    0.23145000    0.74408020    -0.29450000
opls_750-298    N    0.84868992    0.73145000    0.24408020    -0.29450000
opls_900-299    N    0.75003991    0.50000000    0.32203939    -0.07420000
opls_750-300    N    0.15131008    0.26855000    0.24408020    -0.29450000
opls_900-301    N    0.24996009    0.50000000    0.32203939    -0.07420000
opls_750-302    N    0.84868992    0.26855000    0.24408020    -0.29440000
opls_750-303    N    0.15131008    0.73145000    0.24408020    -0.29440000
opls_146-304    H    0.46700997    0.64340019    0.30710066    0.10900000
opls_146-305    H    0.43397002    0.64776000    0.99645954    0.10830000
opls_146-306    H    0.40393999    0.74077012    0.02341977    0.11190000
opls_146-307    H    0.32700997    0.67017017    0.42481001    0.11270000
opls_146-308    H    0.35936999    0.57946014    0.41356965    0.10990000
opls_526-309    H    0.24615999    0.19321991    0.39750998    0.10830000
opls_526-310    H    0.35162989    0.11846018    0.27634054    0.10870000
opls_525-311    H    0.21852988    0.09967979    0.41029003    0.11660000
opls_140-312    H    0.20163003    0.96277005    0.21206943    0.13640000
opls_144-313    H    0.29490009    0.25602988    0.32047996    0.04710000
opls_146-314    H    0.37375993    0.50000000    0.17673956    0.11000000
opls_140-315    H    0.19438007    0.00000000    0.42570957    0.13530000
opls_146-316    H    0.53299003    0.35659981    0.30710066    0.10900000
opls_146-317    H    0.56602998    0.35224000    0.99645954    0.10830000
opls_146-318    H    0.59606001    0.25922988    0.02341977    0.11190000
opls_146-319    H    0.67299003    0.32982983    0.42481001    0.11270000
opls_146-320    H    0.64063001    0.42053986    0.41356965    0.11000000
opls_526-321    H    0.75384001    0.80678009    0.39750998    0.10830000
opls_526-322    H    0.64837011    0.88153982    0.27634054    0.10870000
opls_525-323    H    0.78147012    0.90032021    0.41029003    0.11660000
opls_140-324    H    0.79836997    0.03722995    0.21206943    0.13630000
opls_144-325    H    0.70509991    0.74397012    0.32047996    0.04710000
opls_146-326    H    0.62624007    0.50000000    0.17673956    0.10990000
opls_140-327    H    0.80561993    0.00000000    0.42570957    0.13530000
opls_146-328    H    0.46700997    0.35659981    0.30710066    0.10910000
opls_146-329    H    0.43397002    0.35224000    0.99645954    0.10830000
opls_146-330    H    0.40393999    0.25922988    0.02341977    0.11190000
opls_146-331    H    0.32700997    0.32982983    0.42481001    0.11270000
opls_146-332    H    0.35936999    0.42053986    0.41356965    0.10990000
opls_526-333    H    0.24615999    0.80678009    0.39750998    0.10830000
opls_526-334    H    0.35162989    0.88153982    0.27634054    0.10870000
opls_525-335    H    0.21852988    0.90032021    0.41029003    0.11660000
opls_140-336    H    0.20163003    0.03722995    0.21206943    0.13630000
opls_144-337    H    0.29490009    0.74397012    0.32047996    0.04720000
opls_146-338    H    0.53299003    0.64340019    0.30710066    0.10900000
opls_146-339    H    0.56602998    0.64776000    0.99645954    0.10830000
opls_146-340    H    0.59606001    0.74077012    0.02341977    0.11190000
opls_146-341    H    0.67299003    0.67017017    0.42481001    0.11270000
opls_146-342    H    0.64063001    0.57946014    0.41356965    0.10990000
opls_526-343    H    0.75384001    0.19321991    0.39750998    0.10830000
opls_526-344    H    0.64837011    0.11846018    0.27634054    0.10870000
opls_525-345    H    0.78147012    0.09967979    0.41029003    0.11660000
opls_140-346    H    0.79836997    0.96277005    0.21206943    0.13630000
opls_144-347    H    0.70509991    0.25602988    0.32047996    0.04710000
opls_146-348    H    0.46700997    0.14340019    0.80710066    0.10900000
opls_146-349    H    0.43397002    0.14776000    0.49645954    0.10830000
opls_146-350    H    0.40393999    0.24077012    0.52341977    0.11190000
opls_146-351    H    0.32700997    0.17017017    0.92481001    0.11270000
opls_146-352    H    0.35936999    0.07946014    0.91356965    0.10990000
opls_526-353    H    0.24615999    0.69321991    0.89750998    0.10830000
opls_526-354    H    0.35162989    0.61846018    0.77634054    0.10870000
opls_525-355    H    0.21852988    0.59967979    0.91029003    0.11660000
opls_140-356    H    0.20163003    0.46277005    0.71206943    0.13630000
opls_144-357    H    0.29490009    0.75602988    0.82047996    0.04710000
opls_146-358    H    0.37375993    0.00000000    0.67673956    0.10990000
opls_140-359    H    0.19438007    0.50000000    0.92570957    0.13530000
opls_146-360    H    0.53299003    0.85659981    0.80710066    0.10900000
opls_146-361    H    0.56602998    0.85224000    0.49645954    0.10830000
opls_146-362    H    0.59606001    0.75922988    0.52341977    0.11190000
opls_146-363    H    0.67299003    0.82982983    0.92481001    0.11270000
opls_146-364    H    0.64063001    0.92053986    0.91356965    0.10990000
opls_526-365    H    0.75384001    0.30678009    0.89750998    0.10830000
opls_526-366    H    0.64837011    0.38153982    0.77634054    0.10870000
opls_525-367    H    0.78147012    0.40032021    0.91029003    0.11660000
opls_140-368    H    0.79836997    0.53722995    0.71206943    0.13640000
opls_144-369    H    0.70509991    0.24397012    0.82047996    0.04710000
opls_146-370    H    0.62624007    0.00000000    0.67673956    0.11000000
opls_140-371    H    0.80561993    0.50000000    0.92570957    0.13540000
opls_146-372    H    0.46700997    0.85659981    0.80710066    0.10900000
opls_146-373    H    0.43397002    0.85224000    0.49645954    0.10830000
opls_146-374    H    0.40393999    0.75922988    0.52341977    0.11190000
opls_146-375    H    0.32700997    0.82982983    0.92481001    0.11270000
opls_146-376    H    0.35936999    0.92053986    0.91356965    0.10990000
opls_526-377    H    0.24615999    0.30678009    0.89750998    0.10840000
opls_526-378    H    0.35162989    0.38153982    0.77634054    0.10870000
opls_525-379    H    0.21852988    0.40032021    0.91029003    0.11660000
opls_140-380    H    0.20163003    0.53722995    0.71206943    0.13630000
opls_144-381    H    0.29490009    0.24397012    0.82047996    0.04720000
opls_146-382    H    0.53299003    0.14340019    0.80710066    0.10900000
opls_146-383    H    0.56602998    0.14776000    0.49645954    0.10830000
opls_146-384    H    0.59606001    0.24077012    0.52341977    0.11190000
opls_146-385    H    0.67299003    0.17017017    0.92481001    0.11270000
opls_146-386    H    0.64063001    0.07946014    0.91356965    0.10990000
opls_526-387    H    0.75384001    0.69321991    0.89750998    0.10830000
opls_526-388    H    0.64837011    0.61846018    0.77634054    0.10870000
opls_525-389    H    0.78147012    0.59967979    0.91029003    0.11660000
opls_140-390    H    0.79836997    0.46277005    0.71206943    0.13630000
opls_144-391    H    0.70509991    0.75602988    0.82047996    0.04710000
opls_146-392    H    0.96700997    0.64340019    0.80710066    0.10900000
opls_146-393    H    0.93397002    0.64776000    0.49645954    0.10830000
opls_146-394    H    0.90393999    0.74077012    0.52341977    0.11190000
opls_146-395    H    0.82700997    0.67017017    0.92481001    0.11270000
opls_146-396    H    0.85936999    0.57946014    0.91356965    0.10990000
opls_526-397    H    0.74615999    0.19321991    0.89750998    0.10830000
opls_526-398    H    0.85162989    0.11846018    0.77634054    0.10870000
opls_525-399    H    0.71852988    0.09967979    0.91029003    0.11670000
opls_140-400    H    0.70163003    0.96277005    0.71206943    0.13630000
opls_144-401    H    0.79490009    0.25602988    0.82047996    0.04710000
opls_146-402    H    0.87375993    0.50000000    0.67673956    0.10990000
opls_140-403    H    0.69438007    0.00000000    0.92570957    0.13530000
opls_146-404    H    0.03299003    0.35659981    0.80710066    0.10900000
opls_146-405    H    0.06602998    0.35224000    0.49645954    0.10830000
opls_146-406    H    0.09606001    0.25922988    0.52341977    0.11190000
opls_146-407    H    0.17299003    0.32982983    0.92481001    0.11270000
opls_146-408    H    0.14063001    0.42053986    0.91356965    0.10990000
opls_526-409    H    0.25384001    0.80678009    0.89750998    0.10830000
opls_526-410    H    0.14837011    0.88153982    0.77634054    0.10870000
opls_525-411    H    0.28147012    0.90032021    0.91029003    0.11660000
opls_140-412    H    0.29836997    0.03722995    0.71206943    0.13630000
opls_144-413    H    0.20509991    0.74397012    0.82047996    0.04710000
opls_146-414    H    0.12624007    0.50000000    0.67673956    0.10990000
opls_140-415    H    0.30561993    0.00000000    0.92570957    0.13530000
opls_146-416    H    0.96700997    0.35659981    0.80710066    0.10900000
opls_146-417    H    0.93397002    0.35224000    0.49645954    0.10830000
opls_146-418    H    0.90393999    0.25922988    0.52341977    0.11200000
opls_146-419    H    0.82700997    0.32982983    0.92481001    0.11270000
opls_146-420    H    0.85936999    0.42053986    0.91356965    0.10990000
opls_526-421    H    0.74615999    0.80678009    0.89750998    0.10830000
opls_526-422    H    0.85162989    0.88153982    0.77634054    0.10870000
opls_525-423    H    0.71852988    0.90032021    0.91029003    0.11660000
opls_140-424    H    0.70163003    0.03722995    0.71206943    0.13630000
opls_144-425    H    0.79490009    0.74397012    0.82047996    0.04710000
opls_146-426    H    0.03299003    0.64340019    0.80710066    0.10900000
opls_146-427    H    0.06602998    0.64776000    0.49645954    0.10830000
opls_146-428    H    0.09606001    0.74077012    0.52341977    0.11190000
opls_146-429    H    0.17299003    0.67017017    0.92481001    0.11280000
opls_146-430    H    0.14063001    0.57946014    0.91356965    0.10990000
opls_526-431    H    0.25384001    0.19321991    0.89750998    0.10830000
opls_526-432    H    0.14837011    0.11846018    0.77634054    0.10870000
opls_525-433    H    0.28147012    0.09967979    0.91029003    0.11660000
opls_140-434    H    0.29836997    0.96277005    0.71206943    0.13630000
opls_144-435    H    0.20509991    0.25602988    0.82047996    0.04710000
opls_146-436    H    0.96700997    0.14340019    0.30710066    0.10900000
opls_146-437    H    0.93397002    0.14776000    0.99645954    0.10830000
opls_146-438    H    0.90393999    0.24077012    0.02341977    0.11190000
opls_146-439    H    0.82700997    0.17017017    0.42481001    0.11270000
opls_146-440    H    0.85936999    0.07946014    0.41356965    0.10990000
opls_526-441    H    0.74615999    0.69321991    0.39750998    0.10830000
opls_526-442    H    0.85162989    0.61846018    0.27634054    0.10870000
opls_525-443    H    0.71852988    0.59967979    0.41029003    0.11660000
opls_140-444    H    0.70163003    0.46277005    0.21206943    0.13630000
opls_144-445    H    0.79490009    0.75602988    0.32047996    0.04710000
opls_146-446    H    0.87375993    0.00000000    0.17673956    0.10990000
opls_140-447    H    0.69438007    0.50000000    0.42570957    0.13540000
opls_146-448    H    0.03299003    0.85659981    0.30710066    0.10900000
opls_146-449    H    0.06602998    0.85224000    0.99645954    0.10830000
opls_146-450    H    0.09606001    0.75922988    0.02341977    0.11190000
opls_146-451    H    0.17299003    0.82982983    0.42481001    0.11270000
opls_146-452    H    0.14063001    0.92053986    0.41356965    0.10990000
opls_526-453    H    0.25384001    0.30678009    0.39750998    0.10830000
opls_526-454    H    0.14837011    0.38153982    0.27634054    0.10870000
opls_525-455    H    0.28147012    0.40032021    0.41029003    0.11660000
opls_140-456    H    0.29836997    0.53722995    0.21206943    0.13640000
opls_144-457    H    0.20509991    0.24397012    0.32047996    0.04720000
opls_146-458    H    0.12624007    0.00000000    0.17673956    0.10990000
opls_140-459    H    0.30561993    0.50000000    0.42570957    0.13530000
opls_146-460    H    0.96700997    0.85659981    0.30710066    0.10900000
opls_146-461    H    0.93397002    0.85224000    0.99645954    0.10830000
opls_146-462    H    0.90393999    0.75922988    0.02341977    0.11190000
opls_146-463    H    0.82700997    0.82982983    0.42481001    0.11270000
opls_146-464    H    0.85936999    0.92053986    0.41356965    0.10990000
opls_526-465    H    0.74615999    0.30678009    0.39750998    0.10830000
opls_526-466    H    0.85162989    0.38153982    0.27634054    0.10870000
opls_525-467    H    0.71852988    0.40032021    0.41029003    0.11670000
opls_140-468    H    0.70163003    0.53722995    0.21206943    0.13630000
opls_144-469    H    0.79490009    0.24397012    0.32047996    0.04710000
opls_146-470    H    0.03299003    0.14340019    0.30710066    0.10900000
opls_146-471    H    0.06602998    0.14776000    0.99645954    0.10830000
opls_146-472    H    0.09606001    0.24077012    0.02341977    0.11190000
opls_146-473    H    0.17299003    0.17017017    0.42481001    0.11270000
opls_146-474    H    0.14063001    0.07946014    0.41356965    0.10990000
opls_526-475    H    0.25384001    0.69321991    0.39750998    0.10840000
opls_526-476    H    0.14837011    0.61846018    0.27634054    0.10870000
opls_525-477    H    0.28147012    0.59967979    0.41029003    0.11660000
opls_140-478    H    0.29836997    0.46277005    0.21206943    0.13630000
opls_144-479    H    0.20509991    0.75602988    0.32047996    0.04710000
opls_202-480    S    0.33649995    0.00000000    0.27396049    0.08840000
opls_202-481    S    0.66350005    0.00000000    0.27396049    0.08830000
opls_202-482    S    0.33649995    0.50000000    0.77396049    0.08830000
opls_202-483    S    0.66350005    0.50000000    0.77396049    0.08830000
opls_202-484    S    0.83649995    0.00000000    0.77396049    0.08830000
opls_202-485    S    0.16350005    0.00000000    0.77396049    0.08830000
opls_202-486    S    0.83649995    0.50000000    0.27396049    0.08830000
opls_202-487    S    0.16350005    0.50000000    0.27396049    0.08830000
