#======================================================================
# Crystal Data Generated By AuToFF
#----------------------------------------------------------------------

data_AuToFF_phase_1

_cell_length_a                         23.2201
_cell_length_b                         23.2201
_cell_length_c                         5.5656
_cell_angle_alpha                      90.00
_cell_angle_beta                       90.00
_cell_angle_gamma                      120.00
_symmetry_space_group_name_H-M_alt     'P 1'
_symmetry_space_group_IT_number        1

loop_
_space_group_symop_operation_xyz
   'x, y, z'

loop_
   _atom_site_label
   _atom_site_type_symbol
   _atom_site_fract_x
   _atom_site_fract_y
   _atom_site_fract_z
   _atom_site_charge
opls_494-0    O    0.67106987    0.63786973    0.72027993    -0.46080000
opls_494-1    O    0.36213006    0.03320023    0.72027993    -0.46080000
opls_494-2    O    0.96680007    0.32893004    0.72027993    -0.46080000
opls_494-3    O    0.32892988    0.36212977    0.72027993    -0.46080000
opls_494-4    O    0.63786994    0.96679977    0.72027993    -0.46080000
opls_494-5    O    0.03319993    0.67106996    0.72027993    -0.46080000
opls_494-6    O    0.32892988    0.36212977    0.27972007    -0.46080000
opls_494-7    O    0.63786994    0.96679977    0.27972007    -0.46080000
opls_494-8    O    0.03319993    0.67106996    0.27972007    -0.46080000
opls_494-9    O    0.67106987    0.63786973    0.27972007    -0.46080000
opls_494-10    O    0.36213006    0.03320023    0.27972007    -0.46080000
opls_494-11    O    0.96680007    0.32893004    0.27972007    -0.46080000
opls_281-12    O    0.28719964    0.53750970    0.50000000    -0.33680000
opls_154-13    O    0.69805001    0.56864967    0.50000000    -0.47190000
opls_281-14    O    0.46249003    0.74968969    0.50000000    -0.33680000
opls_154-15    O    0.43135000    0.12939998    0.50000000    -0.47190000
opls_281-16    O    0.25031007    0.71280011    0.50000000    -0.33680000
opls_154-17    O    0.87059973    0.30194985    0.50000000    -0.47190000
opls_281-18    O    0.71280011    0.46248981    0.50000000    -0.33680000
opls_154-19    O    0.30194974    0.43134983    0.50000000    -0.47190000
opls_281-20    O    0.53750972    0.25030981    0.50000000    -0.33680000
opls_154-21    O    0.56865000    0.87060002    0.50000000    -0.47190000
opls_281-22    O    0.74968993    0.28719989    0.50000000    -0.33680000
opls_154-23    O    0.12940002    0.69804965    0.50000000    -0.47190000
opls_474-24    S    0.65580994    0.60320003    0.50000000    1.07870000
opls_474-25    S    0.39679983    0.05260975    0.50000000    1.07870000
opls_474-26    S    0.94738997    0.34418972    0.50000000    1.07860000
opls_474-27    S    0.34419006    0.39679997    0.50000000    1.07870000
opls_474-28    S    0.60319992    0.94738975    0.50000000    1.07870000
opls_474-29    S    0.05260978    0.65580978    0.50000000    1.07850000
opls_796-30    H    0.73901994    0.60932011    0.50000000    0.40230000
opls_910-31    H    0.36530970    0.51826975    0.50000000    0.28330000
opls_144-32    H    0.48074007    0.65595001    0.50000000    0.08520000
opls_146-33    H    0.54450985    0.62124998    0.50000000    0.09120000
opls_796-34    H    0.39068013    0.12969984    0.50000000    0.40220000
opls_910-35    H    0.48172974    0.84703966    0.50000000    0.28330000
opls_144-36    H    0.34404973    0.82478965    0.50000000    0.08520000
opls_146-37    H    0.37875008    0.92326000    0.50000000    0.09120000
opls_796-38    H    0.87029993    0.26098005    0.50000000    0.40230000
opls_910-39    H    0.15295988    0.63469009    0.50000000    0.28320000
opls_144-40    H    0.17520996    0.51925984    0.50000000    0.08520000
opls_146-41    H    0.07674006    0.45549002    0.50000000    0.09120000
opls_796-42    H    0.26098006    0.39067989    0.50000000    0.40230000
opls_910-43    H    0.63469006    0.48172976    0.50000000    0.28330000
opls_144-44    H    0.51925993    0.34404999    0.50000000    0.08520000
opls_146-45    H    0.45549015    0.37875002    0.50000000    0.09120000
opls_796-46    H    0.60931962    0.87029966    0.50000000    0.40230000
opls_910-47    H    0.51827001    0.15295984    0.50000000    0.28330000
opls_144-48    H    0.65595002    0.17520985    0.50000000    0.08520000
opls_146-49    H    0.62124992    0.07674000    0.50000000    0.09120000
opls_796-50    H    0.12970007    0.73901995    0.50000000    0.40220000
opls_910-51    H    0.84704012    0.36530991    0.50000000    0.28330000
opls_144-52    H    0.82479004    0.48074016    0.50000000    0.08520000
opls_146-53    H    0.92325994    0.54450998    0.50000000    0.09120000
opls_238-54    N    0.41383007    0.55465011    0.50000000    -0.21560000
opls_238-55    N    0.44534999    0.85917988    0.50000000    -0.21560000
opls_238-56    N    0.14081994    0.58617001    0.50000000    -0.21560000
opls_238-57    N    0.58616993    0.44534989    0.50000000    -0.21560000
opls_238-58    N    0.55465001    0.14082012    0.50000000    -0.21560000
opls_238-59    N    0.85918006    0.41382999    0.50000000    -0.21560000
opls_280-60    C    0.30892003    0.59718984    0.50000000    0.32520000
opls_700-61    C    0.38179992    0.64044964    0.50000000    -0.11120000
opls_142-62    C    0.42759999    0.61956965    0.50000000    -0.05090000
opls_916-63    C    0.45538000    0.52559973    0.50000000    0.21280000
opls_145-64    C    0.52402002    0.56694995    0.50000000    -0.19200000
opls_145-65    C    0.56971017    0.54395003    0.50000000    -0.17860000
opls_280-66    C    0.40281008    0.71172995    0.50000000    0.32520000
opls_700-67    C    0.35955002    0.74134973    0.50000000    -0.11120000
opls_142-68    C    0.38042966    0.80802966    0.50000000    -0.05090000
opls_916-69    C    0.47439982    0.92977990    0.50000000    0.21280000
opls_145-70    C    0.43304979    0.95706990    0.50000000    -0.19200000
opls_145-71    C    0.45604985    0.02575985    0.50000000    -0.17860000
opls_280-72    C    0.28826964    0.69107970    0.50000000    0.32520000
opls_700-73    C    0.25865024    0.61820013    0.50000000    -0.11120000
opls_142-74    C    0.19196985    0.57239970    0.50000000    -0.05090000
opls_916-75    C    0.07021994    0.54461988    0.50000000    0.21280000
opls_145-76    C    0.04293019    0.47598015    0.50000000    -0.19200000
opls_145-77    C    0.97423998    0.43029012    0.50000000    -0.17860000
opls_280-78    C    0.69107997    0.40281016    0.50000000    0.32520000
opls_700-79    C    0.61819983    0.35954986    0.50000000    -0.11120000
opls_142-80    C    0.57239976    0.38042985    0.50000000    -0.05090000
opls_916-81    C    0.54461975    0.47439978    0.50000000    0.21280000
opls_145-82    C    0.47597998    0.43305005    0.50000000    -0.19200000
opls_145-83    C    0.43028983    0.45604997    0.50000000    -0.17860000
opls_280-84    C    0.59718992    0.28827005    0.50000000    0.32520000
opls_700-85    C    0.64044973    0.25864977    0.50000000    -0.11120000
opls_142-86    C    0.61957009    0.19196984    0.50000000    -0.05090000
opls_916-87    C    0.52560018    0.07022010    0.50000000    0.21280000
opls_145-88    C    0.56695021    0.04293010    0.50000000    -0.19200000
opls_145-89    C    0.54394990    0.97423965    0.50000000    -0.17860000
opls_280-90    C    0.71173011    0.30891980    0.50000000    0.32520000
opls_700-91    C    0.74134976    0.38179987    0.50000000    -0.11120000
opls_142-92    C    0.80802990    0.42759981    0.50000000    -0.05090000
opls_916-93    C    0.92978006    0.45538012    0.50000000    0.21280000
opls_145-94    C    0.95706981    0.52401985    0.50000000    -0.19200000
opls_145-95    C    0.02576002    0.56970988    0.50000000    -0.17860000
