#======================================================================
# Crystal Data Generated By AuToFF
#----------------------------------------------------------------------

data_AuToFF_phase_1

_cell_length_a                         36.8750
_cell_length_b                         4.1044
_cell_length_c                         36.8750
_cell_angle_alpha                      90.00
_cell_angle_beta                       120.00
_cell_angle_gamma                      90.00
_symmetry_space_group_name_H-M_alt     'P 1'
_symmetry_space_group_IT_number        1

loop_
_space_group_symop_operation_xyz
   'x, y, z'

loop_
   _atom_site_label
   _atom_site_type_symbol
   _atom_site_fract_x
   _atom_site_fract_y
   _atom_site_fract_z
   _atom_site_charge
opls_521-0    C    0.64483996    0.59619920    0.29052983    0.17780000
opls_522-1    C    0.62053986    0.55749927    0.30984988    -0.23140000
opls_700-2    C    0.62507012    0.64359955    0.24459013    0.03720000
opls_145-3    C    0.57658996    0.23543027    0.35082006    -0.13140000
opls_145-4    C    0.55353007    0.15488013    0.37019993    -0.17310000
opls_917-5    C    0.56805989    0.24395039    0.41183991    0.21790000
opls_145-6    C    0.60560010    0.41653104    0.43395004    -0.16700000
opls_145-7    C    0.62846006    0.50182974    0.41447999    -0.13370000
opls_701-8    C    0.50678998    0.30945083    0.42384003    0.09090000
opls_700-9    C    0.50313996    0.32988987    0.46319003    0.05030000
opls_145-10    C    0.46382006    0.34741010    0.46071999    -0.13330000
opls_145-11    C    0.46074990    0.34799971    0.49696991    -0.13190000
opls_423-12    C    0.47104995    0.13816879    0.38943982    0.22170000
opls_145-13    C    0.03446995    0.42259039    0.54047996    -0.13040000
opls_700-14    C    0.63987982    0.48244080    0.35268982    0.06490000
opls_522-15    C    0.68366999    0.45758942    0.37575001    -0.21090000
opls_700-16    C    0.61442996    0.40957996    0.37274982    0.06710000
opls_523-17    C    0.77754994    0.57074116    0.42005011    -0.12730000
opls_145-18    C    0.82068995    0.51464039    0.44240010    -0.17110000
opls_917-19    C    0.84021998    0.33793003    0.42414002    0.18430000
opls_145-20    C    0.81575991    0.22479047    0.38291995    -0.17290000
opls_523-21    C    0.77269003    0.28477000    0.36035985    -0.12710000
opls_701-22    C    0.91439986    0.41157051    0.48700989    0.08080000
opls_700-23    C    0.95875004    0.40782088    0.49380000    0.04890000
opls_145-24    C    0.99392003    0.42163045    0.53440005    -0.13330000
opls_423-25    C    0.91180991    0.24726878    0.52116993    0.22170000
opls_521-26    C    0.70718988    0.49939090    0.35576985    0.22200000
opls_700-27    C    0.75311010    0.45377887    0.37896000    0.02690000
opls_523-28    C    0.64438995    0.51406052    0.22315983    -0.13070000
opls_145-29    C    0.62437011    0.52738037    0.17951012    -0.17500000
opls_917-30    C    0.58488008    0.67288032    0.15655013    0.20160000
opls_145-31    C    0.56606001    0.81232092    0.17767011    -0.17370000
opls_523-32    C    0.58614001    0.80141068    0.22137995    -0.13370000
opls_701-33    C    0.57319995    0.83182926    0.08484003    0.07920000
opls_700-34    C    0.53550007    0.87266105    0.04088000    0.04830000
opls_145-35    C    0.54019990    0.89395039    0.00530990    -0.13370000
opls_423-36    C    0.60827981    0.66565881    0.08415989    0.22170000
opls_145-37    C    0.50520996    0.89587029    0.96506996    -0.13330000
opls_521-38    C    0.35515988    0.59619920    0.70946986    0.17780000
opls_522-39    C    0.37945999    0.55749927    0.69014980    -0.23140000
opls_700-40    C    0.37492988    0.64359955    0.75540987    0.03720000
opls_145-41    C    0.42341004    0.23543027    0.64917994    -0.13140000
opls_145-42    C    0.44646993    0.15488013    0.62980007    -0.17310000
opls_917-43    C    0.43194011    0.24395039    0.58816009    0.21790000
opls_145-44    C    0.39439990    0.41653104    0.56604996    -0.16700000
opls_145-45    C    0.37153994    0.50182974    0.58552001    -0.13370000
opls_701-46    C    0.49321002    0.30945083    0.57615997    0.09090000
opls_700-47    C    0.49686004    0.32988987    0.53680997    0.05030000
opls_145-48    C    0.53617994    0.34741010    0.53928001    -0.13330000
opls_145-49    C    0.53925010    0.34799971    0.50303009    -0.13190000
opls_423-50    C    0.52894990    0.13816879    0.61055986    0.22170000
opls_145-51    C    0.96553005    0.42259039    0.45952004    -0.13040000
opls_700-52    C    0.36012002    0.48244080    0.64730987    0.06490000
opls_522-53    C    0.31633001    0.45758942    0.62424999    -0.21090000
opls_700-54    C    0.38556988    0.40957996    0.62724987    0.06710000
opls_523-55    C    0.22245006    0.57074116    0.57994989    -0.12730000
opls_145-56    C    0.17931005    0.51464039    0.55759990    -0.17110000
opls_917-57    C    0.15978002    0.33793003    0.57585998    0.18430000
opls_145-58    C    0.18424009    0.22479047    0.61708005    -0.17290000
opls_523-59    C    0.22730982    0.28477000    0.63963984    -0.12710000
opls_701-60    C    0.08559998    0.41157051    0.51298979    0.08090000
opls_700-61    C    0.04124996    0.40782088    0.50620000    0.04890000
opls_145-62    C    0.00607997    0.42163045    0.46559995    -0.13330000
opls_423-63    C    0.08819009    0.24726878    0.47883007    0.22170000
opls_521-64    C    0.29280997    0.49939090    0.64422983    0.22200000
opls_700-65    C    0.24688990    0.45377887    0.62104000    0.02690000
opls_523-66    C    0.35560989    0.51406052    0.77683986    -0.13070000
opls_145-67    C    0.37562989    0.52738037    0.82048988    -0.17490000
opls_917-68    C    0.41511992    0.67288032    0.84344987    0.20160000
opls_145-69    C    0.43393999    0.81232092    0.82232989    -0.17360000
opls_523-70    C    0.41385999    0.80141068    0.77862005    -0.13370000
opls_701-71    C    0.42680005    0.83182926    0.91515997    0.07920000
opls_700-72    C    0.46449993    0.87266105    0.95912000    0.04830000
opls_145-73    C    0.45979994    0.89395039    0.99468979    -0.13370000
opls_423-74    C    0.39172003    0.66565881    0.91583980    0.22170000
opls_145-75    C    0.49479004    0.89587029    0.03493004    -0.13330000
opls_900-76    N    0.54558993    0.14665968    0.43229009    -0.42430000
opls_753-77    N    0.44292991    0.00431001    0.36233983    -0.31470000
opls_900-78    N    0.88419993    0.25994055    0.44704990    -0.42370000
opls_753-79    N    0.90968990    0.11867995    0.54798998    -0.30220000
opls_520-80    N    0.68717978    0.56244031    0.31395983    -0.30720000
opls_900-81    N    0.56181983    0.64900107    0.11185986    -0.42180000
opls_753-82    N    0.63584013    0.53553016    0.08360000    -0.31470000
opls_900-83    N    0.45441007    0.14665968    0.56770991    -0.42420000
opls_753-84    N    0.55706993    0.00431001    0.63765986    -0.31470000
opls_900-85    N    0.11580007    0.25994055    0.55295010    -0.42370000
opls_753-86    N    0.09031010    0.11867995    0.45201002    -0.30210000
opls_520-87    N    0.31281979    0.56244031    0.68603985    -0.30740000
opls_900-88    N    0.43818001    0.64900107    0.88813983    -0.42180000
opls_753-89    N    0.36415987    0.53553016    0.91640000    -0.31470000
opls_525-90    H    0.58678002    0.57404980    0.29157008    0.11870000
opls_146-91    H    0.56537997    0.15260939    0.31910001    0.11750000
opls_146-92    H    0.52494996    0.01533964    0.35314982    0.11470000
opls_146-93    H    0.61699989    0.48591999    0.46619992    0.11330000
opls_146-94    H    0.65705995    0.64041029    0.43203989    0.11330000
opls_146-95    H    0.42990013    0.35863951    0.49363999    0.11460000
opls_910-96    H    0.55731003    0.95151057    0.45327010    0.26110000
opls_702-97    H    0.50673997    0.55960920    0.41290991    0.07340000
opls_146-98    H    0.06052007    0.43701881    0.57220001    0.11770000
opls_525-99    H    0.69921001    0.38831985    0.40845989    0.11480000
opls_526-100    H    0.76330989    0.70701930    0.43483998    0.11320000
opls_146-101    H    0.83830009    0.60539908    0.47409009    0.11550000
opls_146-102    H    0.83007002    0.08679953    0.36832986    0.11360000
opls_526-103    H    0.75445999    0.19047120    0.32880012    0.11150000
opls_910-104    H    0.89444011    0.06766884    0.43579005    0.26110000
opls_702-105    H    0.90591994    0.66925007    0.48676001    0.06240000
opls_526-106    H    0.67417997    0.38913118    0.24001987    0.11050000
opls_146-107    H    0.63890999    0.41128058    0.16364994    0.11780000
opls_146-108    H    0.53552991    0.92530942    0.16014998    0.11320000
opls_526-109    H    0.57091002    0.91359029    0.23681990    0.11460000
opls_910-110    H    0.53813011    0.47349917    0.09892001    0.26110000
opls_702-111    H    0.58433997    0.07572118    0.09846001    0.08110000
opls_146-112    H    0.51019007    0.90561105    0.93853988    0.11530000
opls_146-113    H    0.43522985    0.35655881    0.43069997    0.11750000
opls_146-114    H    0.99020979    0.43371016    0.56168981    0.11490000
opls_146-115    H    0.57094995    0.90134003    0.00838994    0.11770000
opls_525-116    H    0.41321998    0.57404980    0.70842992    0.11870000
opls_146-117    H    0.43462003    0.15260939    0.68089999    0.11750000
opls_146-118    H    0.47504988    0.01533964    0.64684987    0.11460000
opls_146-119    H    0.38300011    0.48591999    0.53380008    0.11330000
opls_146-120    H    0.34293990    0.64041029    0.56795980    0.11330000
opls_146-121    H    0.57009987    0.35863951    0.50636001    0.11460000
opls_910-122    H    0.44268997    0.95151057    0.54672990    0.26120000
opls_702-123    H    0.49326003    0.55960920    0.58709009    0.07340000
opls_146-124    H    0.93947993    0.43701881    0.42779999    0.11770000
opls_525-125    H    0.30078983    0.38831985    0.59153980    0.11480000
opls_526-126    H    0.23669011    0.70701930    0.56516002    0.11320000
opls_146-127    H    0.16169991    0.60539908    0.52590991    0.11550000
opls_146-128    H    0.16992983    0.08679953    0.63166982    0.11360000
opls_526-129    H    0.24554001    0.19047120    0.67119988    0.11150000
opls_910-130    H    0.10555989    0.06766884    0.56420995    0.26110000
opls_702-131    H    0.09408006    0.66925007    0.51323999    0.06240000
opls_526-132    H    0.32581988    0.38913118    0.75997982    0.11050000
opls_146-133    H    0.36109001    0.41128058    0.83635006    0.11780000
opls_146-134    H    0.46447009    0.92530942    0.83985002    0.11320000
opls_526-135    H    0.42908983    0.91359029    0.76317979    0.11470000
opls_910-136    H    0.46186989    0.47349917    0.90107999    0.26110000
opls_702-137    H    0.41566003    0.07572118    0.90153999    0.08110000
opls_146-138    H    0.48980993    0.90561105    0.06146012    0.11530000
opls_146-139    H    0.56477015    0.35655881    0.56930003    0.11750000
opls_146-140    H    0.00979006    0.43371016    0.43830988    0.11490000
opls_146-141    H    0.42904989    0.90134003    0.99160975    0.11770000
