#======================================================================
# Crystal Data Generated By AuToFF
#----------------------------------------------------------------------

data_AuToFF_phase_1

_cell_length_a                         49.5200
_cell_length_b                         33.7200
_cell_length_c                         15.3000
_cell_angle_alpha                      90.00
_cell_angle_beta                       104.50
_cell_angle_gamma                      90.00
_symmetry_space_group_name_H-M_alt     'P 1'
_symmetry_space_group_IT_number        1

loop_
_space_group_symop_operation_xyz
   'x, y, z'

loop_
   _atom_site_label
   _atom_site_type_symbol
   _atom_site_fract_x
   _atom_site_fract_y
   _atom_site_fract_z
   _atom_site_charge
opls_142-0    C    0.26820999    0.31855991    0.78775993    0.01710000
opls_145-1    C    0.21940002    0.29993001    0.74206996    0.22950000
opls_145-2    C    0.19433994    0.30868001    0.67916026    -0.13370000
opls_145-3    C    0.17106990    0.28412989    0.67060001    -0.07460000
opls_700-4    C    0.17247998    0.25043001    0.72539976    0.08190000
opls_145-5    C    0.19756986    0.24183007    0.78900009    -0.07440000
opls_145-6    C    0.22090988    0.26604004    0.79670026    -0.13370000
opls_700-7    C    0.17593998    0.04148992    0.73221015    0.08450000
opls_700-8    C    0.02438985    0.03055012    0.72311995    0.08200000
opls_700-9    C    0.02978993    0.26044988    0.72150984    0.08320000
opls_145-10    C    0.18698004    0.01141993    0.79413016    -0.09300000
opls_145-11    C    0.20955999    0.98881999    0.78383963    -0.13370000
opls_145-12    C    0.22131987    0.99551987    0.71033022    0.23020000
opls_145-13    C    0.21023990    0.02550000    0.64831975    -0.13370000
opls_145-14    C    0.18750995    0.04804004    0.65834968    -0.07440000
opls_145-15    C    0.00566985    0.00847005    0.65735999    -0.09300000
opls_145-16    C    0.98133993    0.99340006    0.67520013    -0.13350000
opls_145-17    C    0.97579984    0.99962989    0.76009981    0.23040000
opls_145-18    C    0.99551993    0.01929004    0.82771967    -0.11090000
opls_145-19    C    0.01951997    0.03512011    0.80908966    -0.07440000
opls_145-20    C    0.00526004    0.25323992    0.65436998    -0.09150000
opls_145-21    C    0.98025005    0.27072005    0.65972013    -0.11070000
opls_145-22    C    0.97925999    0.29562011    0.73192998    0.22960000
opls_145-23    C    0.00404999    0.30430991    0.79740978    -0.13400000
opls_145-24    C    0.02915985    0.28679004    0.79190976    -0.07440000
opls_263-25    C    0.78660999    0.42370996    0.49170979    0.16770000
opls_145-26    C    0.77509997    0.42744009    0.56580992    -0.14490000
opls_700-27    C    0.79066991    0.41730012    0.65361994    0.01880000
opls_700-28    C    0.81828983    0.40244988    0.66496969    0.02240000
opls_145-29    C    0.82931994    0.39876008    0.58873018    -0.07460000
opls_145-30    C    0.81354995    0.40909994    0.50313988    -0.11490000
opls_700-31    C    0.83432983    0.39173992    0.75214985    -0.07140000
opls_166-32    C    0.82358987    0.39747005    0.82771022    0.25000000
opls_145-33    C    0.79604003    0.41040006    0.81551997    -0.17840000
opls_700-34    C    0.77944002    0.42072005    0.73007009    0.04460000
opls_182-35    C    0.83587993    0.41037011    0.98881025    0.09740000
opls_135-36    C    0.86351001    0.41704004    0.05693981    -0.35600000
opls_142-37    C    0.94600993    0.32893001    0.80215977    0.01650000
opls_142-38    C    0.92644987    0.98640006    0.71925974    0.01710000
opls_142-39    C    0.25223991    0.93873992    0.73165994    0.01650000
opls_716-40    C    0.11203983    0.27491993    0.71077983    -0.09800000
opls_716-41    C    0.08171001    0.27540006    0.71405001    -0.09800000
opls_543-42    C    0.07300000    0.23186002    0.71604965    0.22310000
opls_543-43    C    0.12035000    0.23111002    0.71097021    0.22880000
opls_700-44    C    0.14955995    0.21977995    0.71028026    -0.10320000
opls_700-45    C    0.04380986    0.22151008    0.71704002    -0.10420000
opls_716-46    C    0.08019986    0.01062011    0.71825992    -0.09800000
opls_716-47    C    0.11104988    0.01020996    0.72172993    -0.09800000
opls_543-48    C    0.11993000    0.05373013    0.72154022    0.22310000
opls_543-49    C    0.07179994    0.05441014    0.71658028    0.21980000
opls_700-50    C    0.14933992    0.06401008    0.72314021    -0.10420000
opls_700-51    C    0.04257992    0.06565006    0.71560003    -0.10420000
opls_716-52    C    0.00634999    0.16661002    0.71694010    -0.09800000
opls_716-53    C    0.00589989    0.12169009    0.71561961    -0.09800000
opls_543-54    C    0.03555990    0.10862011    0.71555008    0.22300000
opls_543-55    C    0.03620983    0.17875000    0.71722972    0.22280000
opls_716-56    C    0.18661987    0.11897005    0.72005028    -0.09800000
opls_716-57    C    0.18652989    0.16387989    0.71470013    -0.09790000
opls_543-58    C    0.15674990    0.17694988    0.71312985    0.22600000
opls_543-59    C    0.15685995    0.10677995    0.72100014    0.22150000
opls_263-60    C    0.34632984    0.30079004    0.97029973    0.17540000
opls_145-61    C    0.32026998    0.30841014    0.91241006    -0.14490000
opls_700-62    C    0.31601998    0.34170996    0.85429963    0.02330000
opls_700-63    C    0.33863986    0.36805991    0.85717015    0.02510000
opls_145-64    C    0.36476994    0.35961002    0.91642959    -0.07450000
opls_145-65    C    0.36852996    0.32630991    0.97207996    -0.11110000
opls_700-66    C    0.33462995    0.40205012    0.80065971    -0.07120000
opls_166-67    C    0.30785991    0.41152995    0.74771986    0.26980000
opls_145-68    C    0.28570001    0.38506999    0.74504984    -0.17890000
opls_700-69    C    0.28977989    0.34955991    0.79442990    0.04380000
opls_182-70    C    0.27812003    0.45781999    0.64275019    0.09740000
opls_135-71    C    0.28030003    0.49748013    0.59781025    -0.35600000
opls_263-72    C    0.40903990    0.37281999    0.64067021    0.15640000
opls_145-73    C    0.41491990    0.41148992    0.67242008    -0.14490000
opls_700-74    C    0.39785989    0.43070996    0.72084015    0.01880000
opls_700-75    C    0.37437991    0.41005012    0.73659964    0.02090000
opls_145-76    C    0.36908986    0.37086002    0.70458986    -0.07660000
opls_145-77    C    0.38622988    0.35262011    0.65680978    -0.10950000
opls_700-78    C    0.35681995    0.42908986    0.78411980    -0.05660000
opls_166-79    C    0.36319983    0.46769009    0.81773969    0.25260000
opls_145-80    C    0.38682991    0.48705991    0.80525983    -0.18570000
opls_700-81    C    0.40387988    0.46959994    0.75581968    0.04410000
opls_182-82    C    0.33175000    0.52055012    0.82659023    0.09740000
opls_135-83    C    0.34159000    0.55662011    0.88583009    -0.35540000
opls_263-84    C    0.92723001    0.45223013    0.74524967    0.15640000
opls_145-85    C    0.93311998    0.41218001    0.76421993    -0.14490000
opls_700-86    C    0.91167993    0.38512989    0.76847980    0.01860000
opls_700-87    C    0.88372002    0.39930012    0.75053974    0.02240000
opls_145-88    C    0.87826996    0.43981999    0.73008022    -0.07670000
opls_145-89    C    0.89989998    0.46594988    0.72800969    -0.11110000
opls_700-90    C    0.86179990    0.37276008    0.75410966    -0.07990000
opls_166-91    C    0.86743991    0.33230012    0.77046999    0.25310000
opls_145-92    C    0.89486990    0.31838998    0.78598982    -0.17840000
opls_700-93    C    0.91724995    0.34438998    0.78917966    0.04220000
opls_182-94    C    0.84827997    0.28077995    0.84613027    0.09740000
opls_135-95    C    0.84859001    0.23772005    0.81703016    -0.35600000
opls_142-96    C    0.76820999    0.81855991    0.78775993    0.01710000
opls_145-97    C    0.71940002    0.79993001    0.74206996    0.22950000
opls_145-98    C    0.69433994    0.80868001    0.67916026    -0.13370000
opls_145-99    C    0.67106990    0.78412989    0.67060001    -0.07460000
opls_700-100    C    0.67247998    0.75043001    0.72539976    0.08190000
opls_145-101    C    0.69756986    0.74183007    0.78900009    -0.07440000
opls_145-102    C    0.72090988    0.76604004    0.79670026    -0.13370000
opls_700-103    C    0.67593998    0.54148992    0.73221015    0.08450000
opls_700-104    C    0.52438985    0.53055012    0.72311995    0.08200000
opls_700-105    C    0.52978993    0.76044988    0.72150984    0.08320000
opls_145-106    C    0.68698004    0.51141993    0.79413016    -0.09300000
opls_145-107    C    0.70955999    0.48881999    0.78383963    -0.13370000
opls_145-108    C    0.72131987    0.49551987    0.71033022    0.23020000
opls_145-109    C    0.71023990    0.52550000    0.64831975    -0.13380000
opls_145-110    C    0.68750995    0.54804004    0.65834968    -0.07450000
opls_145-111    C    0.50566985    0.50847005    0.65735999    -0.09300000
opls_145-112    C    0.48133993    0.49340006    0.67520013    -0.13350000
opls_145-113    C    0.47579984    0.49962989    0.76009981    0.23040000
opls_145-114    C    0.49551993    0.51929004    0.82771967    -0.11090000
opls_145-115    C    0.51951997    0.53512011    0.80908966    -0.07440000
opls_145-116    C    0.50526004    0.75323992    0.65436998    -0.09150000
opls_145-117    C    0.48025005    0.77072005    0.65972013    -0.11070000
opls_145-118    C    0.47925999    0.79562011    0.73192998    0.22960000
opls_145-119    C    0.50404999    0.80430991    0.79740978    -0.13400000
opls_145-120    C    0.52915985    0.78679004    0.79190976    -0.07440000
opls_263-121    C    0.28660999    0.92370996    0.49170979    0.16770000
opls_145-122    C    0.27509997    0.92744009    0.56580992    -0.14490000
opls_700-123    C    0.29066991    0.91730012    0.65361994    0.01880000
opls_700-124    C    0.31828983    0.90244988    0.66496969    0.02240000
opls_145-125    C    0.32931994    0.89876008    0.58873018    -0.07460000
opls_145-126    C    0.31354995    0.90909994    0.50313988    -0.11490000
opls_700-127    C    0.33432983    0.89173992    0.75214985    -0.07140000
opls_166-128    C    0.32358987    0.89747005    0.82771022    0.25000000
opls_145-129    C    0.29604003    0.91040006    0.81551997    -0.17840000
opls_700-130    C    0.27944002    0.92072005    0.73007009    0.04460000
opls_182-131    C    0.33587993    0.91037011    0.98881025    0.09740000
opls_135-132    C    0.36351001    0.91704004    0.05693981    -0.35600000
opls_142-133    C    0.44600993    0.82893001    0.80215977    0.01650000
opls_142-134    C    0.42644987    0.48640006    0.71925974    0.01710000
opls_142-135    C    0.75223991    0.43873992    0.73165994    0.01650000
opls_716-136    C    0.61203983    0.77491993    0.71077983    -0.09800000
opls_716-137    C    0.58171001    0.77540006    0.71405001    -0.09790000
opls_543-138    C    0.57300000    0.73186002    0.71604965    0.22300000
opls_543-139    C    0.62035000    0.73111002    0.71097021    0.22880000
opls_700-140    C    0.64955995    0.71977995    0.71028026    -0.10320000
opls_700-141    C    0.54380986    0.72151008    0.71704002    -0.10420000
opls_716-142    C    0.58019986    0.51062011    0.71825992    -0.09800000
opls_716-143    C    0.61104988    0.51020996    0.72172993    -0.09800000
opls_543-144    C    0.61993000    0.55373013    0.72154022    0.22300000
opls_543-145    C    0.57179994    0.55441014    0.71658028    0.21980000
opls_700-146    C    0.64933992    0.56401008    0.72314021    -0.10420000
opls_700-147    C    0.54257992    0.56565006    0.71560003    -0.10420000
opls_716-148    C    0.50634999    0.66661002    0.71694010    -0.09800000
opls_716-149    C    0.50589989    0.62169009    0.71561961    -0.09800000
opls_543-150    C    0.53555990    0.60862011    0.71555008    0.22300000
opls_543-151    C    0.53620983    0.67875000    0.71722972    0.22280000
opls_716-152    C    0.68661987    0.61897005    0.72005028    -0.09810000
opls_716-153    C    0.68652989    0.66387989    0.71470013    -0.09790000
opls_543-154    C    0.65674990    0.67694988    0.71312985    0.22600000
opls_543-155    C    0.65685995    0.60677995    0.72100014    0.22150000
opls_263-156    C    0.84632984    0.80079004    0.97029973    0.17540000
opls_145-157    C    0.82026998    0.80841014    0.91241006    -0.14490000
opls_700-158    C    0.81601998    0.84170996    0.85429963    0.02330000
opls_700-159    C    0.83863986    0.86805991    0.85717015    0.02510000
opls_145-160    C    0.86476994    0.85961002    0.91642959    -0.07450000
opls_145-161    C    0.86852996    0.82630991    0.97207996    -0.11110000
opls_700-162    C    0.83462995    0.90205012    0.80065971    -0.07120000
opls_166-163    C    0.80785991    0.91152995    0.74771986    0.26970000
opls_145-164    C    0.78570001    0.88506999    0.74504984    -0.17890000
opls_700-165    C    0.78977989    0.84955991    0.79442990    0.04380000
opls_182-166    C    0.77812003    0.95781999    0.64275019    0.09740000
opls_135-167    C    0.78030003    0.99748013    0.59781025    -0.35590000
opls_263-168    C    0.90903990    0.87281999    0.64067021    0.15640000
opls_145-169    C    0.91491990    0.91148992    0.67242008    -0.14490000
opls_700-170    C    0.89785989    0.93070996    0.72084015    0.01880000
opls_700-171    C    0.87437991    0.91005012    0.73659964    0.02090000
opls_145-172    C    0.86908986    0.87086002    0.70458986    -0.07670000
opls_145-173    C    0.88622988    0.85262011    0.65680978    -0.10950000
opls_700-174    C    0.85681995    0.92908986    0.78411980    -0.05660000
opls_166-175    C    0.86319983    0.96769009    0.81773969    0.25260000
opls_145-176    C    0.88682991    0.98705991    0.80525983    -0.18570000
opls_700-177    C    0.90387988    0.96959994    0.75581968    0.04410000
opls_182-178    C    0.83175000    0.02055012    0.82659023    0.09740000
opls_135-179    C    0.84159000    0.05662011    0.88583009    -0.35550000
opls_263-180    C    0.42723001    0.95223013    0.74524967    0.15640000
opls_145-181    C    0.43311998    0.91218001    0.76421993    -0.14490000
opls_700-182    C    0.41167993    0.88512989    0.76847980    0.01860000
opls_700-183    C    0.38372002    0.89930012    0.75053974    0.02240000
opls_145-184    C    0.37826996    0.93981999    0.73008022    -0.07670000
opls_145-185    C    0.39989998    0.96594988    0.72800969    -0.11110000
opls_700-186    C    0.36179990    0.87276008    0.75410966    -0.07990000
opls_166-187    C    0.36743991    0.83230012    0.77046999    0.25300000
opls_145-188    C    0.39486990    0.81838998    0.78598982    -0.17840000
opls_700-189    C    0.41724995    0.84438998    0.78917966    0.04220000
opls_182-190    C    0.34827997    0.78077995    0.84613027    0.09740000
opls_135-191    C    0.34859001    0.73772005    0.81703016    -0.35600000
opls_142-192    C    0.73179001    0.31855991    0.21224007    0.01710000
opls_145-193    C    0.78059998    0.29993001    0.25793004    0.22950000
opls_145-194    C    0.80565986    0.30868001    0.32083974    -0.13370000
opls_145-195    C    0.82892990    0.28412989    0.32939999    -0.07460000
opls_700-196    C    0.82752002    0.25043001    0.27460024    0.08190000
opls_145-197    C    0.80242994    0.24183007    0.21099991    -0.07440000
opls_145-198    C    0.77908992    0.26604004    0.20329974    -0.13370000
opls_700-199    C    0.82406002    0.04148992    0.26778985    0.08500000
opls_700-200    C    0.97560995    0.03055012    0.27688005    0.08200000
opls_700-201    C    0.97021007    0.26044988    0.27849016    0.08330000
opls_145-202    C    0.81301996    0.01141993    0.20586984    -0.09300000
opls_145-203    C    0.79043996    0.98881999    0.21615969    -0.13370000
opls_145-204    C    0.77867993    0.99551987    0.28966978    0.23020000
opls_145-205    C    0.78975990    0.02550000    0.35168025    -0.13380000
opls_145-206    C    0.81249000    0.04804004    0.34164964    -0.07450000
opls_145-207    C    0.99432994    0.00847005    0.34264001    -0.09300000
opls_145-208    C    0.01865987    0.99340006    0.32479987    -0.13350000
opls_145-209    C    0.02419996    0.99962989    0.23990019    0.23040000
opls_145-210    C    0.00448002    0.01929004    0.17227966    -0.11090000
opls_145-211    C    0.98047998    0.03512011    0.19090967    -0.07440000
opls_145-212    C    0.99473996    0.25323992    0.34563002    -0.09150000
opls_145-213    C    0.01974995    0.27072005    0.34027987    -0.11070000
opls_145-214    C    0.02074001    0.29562011    0.26807002    0.22960000
opls_145-215    C    0.99595001    0.30430991    0.20259022    -0.13400000
opls_145-216    C    0.97083995    0.28679004    0.20809024    -0.07440000
opls_263-217    C    0.21339001    0.42370996    0.50829021    0.16770000
opls_145-218    C    0.22490003    0.42744009    0.43419008    -0.14490000
opls_700-219    C    0.20932989    0.41730012    0.34638006    0.01880000
opls_700-220    C    0.18170996    0.40244988    0.33503031    0.02240000
opls_145-221    C    0.17067986    0.39876008    0.41126982    -0.07460000
opls_145-222    C    0.18645005    0.40909994    0.49686012    -0.11490000
opls_700-223    C    0.16566997    0.39173992    0.24785015    -0.07140000
opls_166-224    C    0.17640992    0.39747005    0.17228978    0.25000000
opls_145-225    C    0.20395997    0.41040006    0.18448003    -0.17840000
opls_700-226    C    0.22055998    0.42072005    0.26992991    0.04460000
opls_182-227    C    0.16412007    0.41037011    0.01118975    0.09740000
opls_135-228    C    0.13648999    0.41704004    0.94306019    -0.35590000
opls_142-229    C    0.05399007    0.32893001    0.19784023    0.01650000
opls_142-230    C    0.07354993    0.98640006    0.28074026    0.01710000
opls_142-231    C    0.74775989    0.93873992    0.26834006    0.01650000
opls_716-232    C    0.88795997    0.27491993    0.28922017    -0.09800000
opls_716-233    C    0.91828999    0.27540006    0.28594999    -0.09800000
opls_543-234    C    0.92699994    0.23186002    0.28394968    0.22310000
opls_543-235    C    0.87965000    0.23111002    0.28902979    0.22880000
opls_700-236    C    0.85044005    0.21977995    0.28971974    -0.10320000
opls_700-237    C    0.95618994    0.22151008    0.28295998    -0.10420000
opls_716-238    C    0.91979993    0.01062011    0.28174008    -0.09800000
opls_716-239    C    0.88894991    0.01020996    0.27827007    -0.09800000
opls_543-240    C    0.88007000    0.05373013    0.27845978    0.22300000
opls_543-241    C    0.92819986    0.05441014    0.28341972    0.21980000
opls_700-242    C    0.85065988    0.06401008    0.27685979    -0.10420000
opls_700-243    C    0.95741988    0.06565006    0.28439997    -0.10420000
opls_716-244    C    0.99365001    0.16661002    0.28305990    -0.09800000
opls_716-245    C    0.99410005    0.12169009    0.28437971    -0.09790000
opls_543-246    C    0.96443990    0.10862011    0.28444992    0.22300000
opls_543-247    C    0.96378997    0.17875000    0.28277028    0.22280000
opls_716-248    C    0.81337993    0.11897005    0.27994972    -0.09810000
opls_716-249    C    0.81346990    0.16387989    0.28529987    -0.09790000
opls_543-250    C    0.84324990    0.17694988    0.28687015    0.22600000
opls_543-251    C    0.84314005    0.10677995    0.27899986    0.22150000
opls_263-252    C    0.65366995    0.30079004    0.02970027    0.17540000
opls_145-253    C    0.67973002    0.30841014    0.08758994    -0.14490000
opls_700-254    C    0.68397996    0.34170996    0.14569969    0.02330000
opls_700-255    C    0.66135994    0.36805991    0.14282985    0.02510000
opls_145-256    C    0.63523000    0.35961002    0.08356973    -0.07450000
opls_145-257    C    0.63147004    0.32630991    0.02792004    -0.11110000
opls_700-258    C    0.66537005    0.40205012    0.19934029    -0.07120000
opls_166-259    C    0.69214009    0.41152995    0.25228014    0.26970000
opls_145-260    C    0.71429999    0.38506999    0.25495016    -0.17890000
opls_700-261    C    0.71021991    0.34955991    0.20557010    0.04380000
opls_182-262    C    0.72187997    0.45781999    0.35724981    0.09740000
opls_135-263    C    0.71969997    0.49748013    0.40218975    -0.35590000
opls_263-264    C    0.59095990    0.37281999    0.35932979    0.15640000
opls_145-265    C    0.58507990    0.41148992    0.32757992    -0.14490000
opls_700-266    C    0.60213991    0.43070996    0.27915985    0.01880000
opls_700-267    C    0.62562004    0.41005012    0.26339969    0.02090000
opls_145-268    C    0.63090994    0.37086002    0.29541014    -0.07670000
opls_145-269    C    0.61376992    0.35262011    0.34319022    -0.10940000
opls_700-270    C    0.64318005    0.42908986    0.21588020    -0.05660000
opls_166-271    C    0.63679997    0.46769009    0.18226031    0.25260000
opls_145-272    C    0.61317009    0.48705991    0.19474017    -0.18570000
opls_700-273    C    0.59611992    0.46959994    0.24418032    0.04410000
opls_182-274    C    0.66825000    0.52055012    0.17340977    0.09740000
opls_135-275    C    0.65841000    0.55662011    0.11416991    -0.35550000
opls_263-276    C    0.07276994    0.45223013    0.25474965    0.15660000
opls_145-277    C    0.06688002    0.41218001    0.23578007    -0.14480000
opls_700-278    C    0.08832007    0.38512989    0.23152020    0.01860000
opls_700-279    C    0.11627998    0.39930012    0.24946026    0.02240000
opls_145-280    C    0.12173004    0.43981999    0.26991978    -0.07670000
opls_145-281    C    0.10010002    0.46594988    0.27199031    -0.11110000
opls_700-282    C    0.13820005    0.37276008    0.24588966    -0.07990000
opls_166-283    C    0.13255989    0.33230012    0.22953001    0.25300000
opls_145-284    C    0.10513010    0.31838998    0.21401018    -0.17840000
opls_700-285    C    0.08275000    0.34438998    0.21081966    0.04220000
opls_182-286    C    0.15172003    0.28077995    0.15386973    0.09740000
opls_135-287    C    0.15140999    0.23772005    0.18296984    -0.35600000
opls_142-288    C    0.23179001    0.81855991    0.21224007    0.01710000
opls_145-289    C    0.28059998    0.79993001    0.25793004    0.22960000
opls_145-290    C    0.30565986    0.80868001    0.32083974    -0.13370000
opls_145-291    C    0.32892990    0.78412989    0.32939999    -0.07460000
opls_700-292    C    0.32752002    0.75043001    0.27460024    0.08200000
opls_145-293    C    0.30242994    0.74183007    0.21099991    -0.07440000
opls_145-294    C    0.27908992    0.76604004    0.20329974    -0.13370000
opls_700-295    C    0.32406002    0.54148992    0.26778985    0.08500000
opls_700-296    C    0.47560995    0.53055012    0.27688005    0.08200000
opls_700-297    C    0.47021007    0.76044988    0.27849016    0.08320000
opls_145-298    C    0.31301996    0.51141993    0.20586984    -0.09300000
opls_145-299    C    0.29043996    0.48881999    0.21615969    -0.13370000
opls_145-300    C    0.27867993    0.49551987    0.28966978    0.23020000
opls_145-301    C    0.28975990    0.52550000    0.35168025    -0.13380000
opls_145-302    C    0.31249000    0.54804004    0.34164964    -0.07450000
opls_145-303    C    0.49432994    0.50847005    0.34264001    -0.09300000
opls_145-304    C    0.51865987    0.49340006    0.32479987    -0.13350000
opls_145-305    C    0.52419996    0.49962989    0.23990019    0.23040000
opls_145-306    C    0.50448002    0.51929004    0.17227966    -0.11090000
opls_145-307    C    0.48047998    0.53512011    0.19090967    -0.07440000
opls_145-308    C    0.49473996    0.75323992    0.34563002    -0.09150000
opls_145-309    C    0.51974995    0.77072005    0.34027987    -0.11070000
opls_145-310    C    0.52074001    0.79562011    0.26807002    0.22960000
opls_145-311    C    0.49595001    0.80430991    0.20259022    -0.13400000
opls_145-312    C    0.47083995    0.78679004    0.20809024    -0.07440000
opls_263-313    C    0.71339001    0.92370996    0.50829021    0.16770000
opls_145-314    C    0.72490003    0.92744009    0.43419008    -0.14490000
opls_700-315    C    0.70932989    0.91730012    0.34638006    0.01880000
opls_700-316    C    0.68170996    0.90244988    0.33503031    0.02240000
opls_145-317    C    0.67067986    0.89876008    0.41126982    -0.07460000
opls_145-318    C    0.68645005    0.90909994    0.49686012    -0.11490000
opls_700-319    C    0.66566997    0.89173992    0.24785015    -0.07140000
opls_166-320    C    0.67640992    0.89747005    0.17228978    0.25000000
opls_145-321    C    0.70395997    0.91040006    0.18448003    -0.17840000
opls_700-322    C    0.72055998    0.92072005    0.26992991    0.04460000
opls_182-323    C    0.66412007    0.91037011    0.01118975    0.09740000
opls_135-324    C    0.63648999    0.91704004    0.94306019    -0.35600000
opls_142-325    C    0.55399007    0.82893001    0.19784023    0.01650000
opls_142-326    C    0.57354993    0.48640006    0.28074026    0.01710000
opls_142-327    C    0.24775989    0.43873992    0.26834006    0.01650000
opls_716-328    C    0.38795997    0.77491993    0.28922017    -0.09800000
opls_716-329    C    0.41828999    0.77540006    0.28594999    -0.09800000
opls_543-330    C    0.42699994    0.73186002    0.28394968    0.22300000
opls_543-331    C    0.37965000    0.73111002    0.28902979    0.22880000
opls_700-332    C    0.35044005    0.71977995    0.28971974    -0.10310000
opls_700-333    C    0.45618994    0.72151008    0.28295998    -0.10420000
opls_716-334    C    0.41979993    0.51062011    0.28174008    -0.09800000
opls_716-335    C    0.38894991    0.51020996    0.27827007    -0.09800000
opls_543-336    C    0.38007000    0.55373013    0.27845978    0.22300000
opls_543-337    C    0.42819986    0.55441014    0.28341972    0.21990000
opls_700-338    C    0.35065988    0.56401008    0.27685979    -0.10420000
opls_700-339    C    0.45741988    0.56565006    0.28439997    -0.10420000
opls_716-340    C    0.49365001    0.66661002    0.28305990    -0.09800000
opls_716-341    C    0.49410005    0.62169009    0.28437971    -0.09800000
opls_543-342    C    0.46443990    0.60862011    0.28444992    0.22300000
opls_543-343    C    0.46378997    0.67875000    0.28277028    0.22280000
opls_716-344    C    0.31337993    0.61897005    0.27994972    -0.09810000
opls_716-345    C    0.31346990    0.66387989    0.28529987    -0.09790000
opls_543-346    C    0.34324990    0.67694988    0.28687015    0.22610000
opls_543-347    C    0.34314005    0.60677995    0.27899986    0.22160000
opls_263-348    C    0.15366995    0.80079004    0.02970027    0.17540000
opls_145-349    C    0.17973002    0.80841014    0.08758994    -0.14490000
opls_700-350    C    0.18397996    0.84170996    0.14569969    0.02330000
opls_700-351    C    0.16135994    0.86805991    0.14282985    0.02510000
opls_145-352    C    0.13523000    0.85961002    0.08356973    -0.07450000
opls_145-353    C    0.13147004    0.82630991    0.02792004    -0.11110000
opls_700-354    C    0.16537005    0.90205012    0.19934029    -0.07120000
opls_166-355    C    0.19214009    0.91152995    0.25228014    0.26970000
opls_145-356    C    0.21429999    0.88506999    0.25495016    -0.17890000
opls_700-357    C    0.21021991    0.84955991    0.20557010    0.04380000
opls_182-358    C    0.22187997    0.95781999    0.35724981    0.09740000
opls_135-359    C    0.21969997    0.99748013    0.40218975    -0.35580000
opls_263-360    C    0.09095990    0.87281999    0.35932979    0.15650000
opls_145-361    C    0.08507990    0.91148992    0.32757992    -0.14490000
opls_700-362    C    0.10213991    0.93070996    0.27915985    0.01880000
opls_700-363    C    0.12562004    0.91005012    0.26339969    0.02090000
opls_145-364    C    0.13090994    0.87086002    0.29541014    -0.07670000
opls_145-365    C    0.11376992    0.85262011    0.34319022    -0.10950000
opls_700-366    C    0.14318005    0.92908986    0.21588020    -0.05660000
opls_166-367    C    0.13679997    0.96769009    0.18226031    0.25260000
opls_145-368    C    0.11317009    0.98705991    0.19474017    -0.18570000
opls_700-369    C    0.09611992    0.96959994    0.24418032    0.04410000
opls_182-370    C    0.16825000    0.02055012    0.17340977    0.09740000
opls_135-371    C    0.15841000    0.05662011    0.11416991    -0.35550000
opls_263-372    C    0.57276994    0.95223013    0.25474965    0.15640000
opls_145-373    C    0.56688002    0.91218001    0.23578007    -0.14490000
opls_700-374    C    0.58832007    0.88512989    0.23152020    0.01860000
opls_700-375    C    0.61627998    0.89930012    0.24946026    0.02240000
opls_145-376    C    0.62173004    0.93981999    0.26991978    -0.07670000
opls_145-377    C    0.60010002    0.96594988    0.27199031    -0.11110000
opls_700-378    C    0.63820005    0.87276008    0.24588966    -0.07990000
opls_166-379    C    0.63255989    0.83230012    0.22953001    0.25300000
opls_145-380    C    0.60513010    0.81838998    0.21401018    -0.17840000
opls_700-381    C    0.58275000    0.84438998    0.21081966    0.04220000
opls_182-382    C    0.65172003    0.78077995    0.15386973    0.09750000
opls_135-383    C    0.65140999    0.73772005    0.18296984    -0.35600000
opls_750-384    N    0.24220991    0.32726987    0.75272976    -0.28250000
opls_750-385    N    0.95269996    0.31163998    0.73461012    -0.28260000
opls_750-386    N    0.95024993    0.98673013    0.77897015    -0.28250000
opls_750-387    N    0.24546999    0.97420996    0.70042990    -0.28250000
opls_542-388    N    0.09654987    0.20304004    0.71439971    -0.31290000
opls_542-389    N    0.09599995    0.08250000    0.71825992    -0.31290000
opls_542-390    N    0.05524985    0.14338998    0.71646011    -0.31290000
opls_542-391    N    0.13743001    0.14215006    0.71697993    -0.31290000
opls_750-392    N    0.74220991    0.82726987    0.75272976    -0.28240000
opls_750-393    N    0.45269996    0.81163998    0.73461012    -0.28270000
opls_750-394    N    0.45024993    0.48673013    0.77897015    -0.28260000
opls_750-395    N    0.74546999    0.47420996    0.70042990    -0.28250000
opls_542-396    N    0.59654987    0.70304004    0.71439971    -0.31290000
opls_542-397    N    0.59599995    0.58250000    0.71825992    -0.31290000
opls_542-398    N    0.55524985    0.64338998    0.71646011    -0.31290000
opls_542-399    N    0.63743001    0.64215006    0.71697993    -0.31280000
opls_750-400    N    0.75779009    0.32726987    0.24727024    -0.28240000
opls_750-401    N    0.04730004    0.31163998    0.26538988    -0.28270000
opls_750-402    N    0.04975007    0.98673013    0.22102985    -0.28270000
opls_750-403    N    0.75453001    0.97420996    0.29957010    -0.28250000
opls_542-404    N    0.90344993    0.20304004    0.28560029    -0.31280000
opls_542-405    N    0.90400005    0.08250000    0.28174008    -0.31290000
opls_542-406    N    0.94474995    0.14338998    0.28353989    -0.31290000
opls_542-407    N    0.86256999    0.14215006    0.28302007    -0.31290000
opls_750-408    N    0.25779009    0.82726987    0.24727024    -0.28240000
opls_750-409    N    0.54730004    0.81163998    0.26538988    -0.28270000
opls_750-410    N    0.54975007    0.48673013    0.22102985    -0.28270000
opls_750-411    N    0.25453001    0.47420996    0.29957010    -0.28250000
opls_542-412    N    0.40344993    0.70304004    0.28560029    -0.31290000
opls_542-413    N    0.40400005    0.58250000    0.28174008    -0.31280000
opls_542-414    N    0.44474995    0.64338998    0.28353989    -0.31290000
opls_542-415    N    0.36256999    0.64215006    0.28302007    -0.31290000
opls_179-416    O    0.84061997    0.38852995    0.91386962    -0.16930000
opls_179-417    O    0.30496000    0.44694009    0.69678977    -0.18410000
opls_179-418    O    0.34643981    0.48605012    0.86753966    -0.17940000
opls_179-419    O    0.84524993    0.30619009    0.76944992    -0.18220000
opls_179-420    O    0.34061997    0.88852995    0.91386962    -0.16930000
opls_179-421    O    0.80496000    0.94694009    0.69678977    -0.18410000
opls_179-422    O    0.84643981    0.98605012    0.86753966    -0.17940000
opls_179-423    O    0.34524993    0.80619009    0.76944992    -0.18220000
opls_179-424    O    0.15937998    0.38852995    0.08612970    -0.16930000
opls_179-425    O    0.69504000    0.44694009    0.30321023    -0.18410000
opls_179-426    O    0.65355993    0.48605012    0.13245967    -0.17940000
opls_179-427    O    0.15475007    0.30619009    0.23055008    -0.18220000
opls_179-428    O    0.65937998    0.88852995    0.08612970    -0.16930000
opls_179-429    O    0.19504000    0.94694009    0.30321023    -0.18410000
opls_179-430    O    0.15355993    0.98605012    0.13245967    -0.17940000
opls_179-431    O    0.65475007    0.80619009    0.23055008    -0.18220000
opls_264-432    Cl    0.76722989    0.43809994    0.38428007    -0.06830000
opls_264-433    Cl    0.35099997    0.25948013    0.04239009    -0.06830000
opls_264-434    Cl    0.43049999    0.34948992    0.58064993    -0.06830000
opls_264-435    Cl    0.95432988    0.48545996    0.74231975    -0.06830000
opls_264-436    Cl    0.26722989    0.93809994    0.38428007    -0.06830000
opls_264-437    Cl    0.85099997    0.75948013    0.04239009    -0.06830000
opls_264-438    Cl    0.93049999    0.84948992    0.58064993    -0.06830000
opls_264-439    Cl    0.45432988    0.98545996    0.74231975    -0.06830000
opls_264-440    Cl    0.23276991    0.43809994    0.61571993    -0.06830000
opls_264-441    Cl    0.64899983    0.25948013    0.95760991    -0.06830000
opls_264-442    Cl    0.56950001    0.34948992    0.41935007    -0.06830000
opls_264-443    Cl    0.04566991    0.48545996    0.25768025    -0.06830000
opls_264-444    Cl    0.73276991    0.93809994    0.61571993    -0.06830000
opls_264-445    Cl    0.14899983    0.75948013    0.95760991    -0.06820000
opls_264-446    Cl    0.06950001    0.84948992    0.41935007    -0.06830000
opls_264-447    Cl    0.54566991    0.98545996    0.25768025    -0.06830000
opls_144-448    H    0.27394990    0.28730991    0.81442023    0.02950000
opls_146-449    H    0.19276987    0.33601987    0.63434994    0.04990000
opls_146-450    H    0.15077987    0.29141993    0.61884024    0.04990000
opls_146-451    H    0.19900002    0.21487989    0.83492026    0.05000000
opls_146-452    H    0.24125983    0.25823013    0.84757971    0.04990000
opls_146-453    H    0.17748990    0.00530012    0.85341998    0.04990000
opls_146-454    H    0.21861988    0.96475000    0.83512009    0.04990000
opls_146-455    H    0.21977995    0.03166993    0.58913997    0.04940000
opls_146-456    H    0.17834991    0.07179004    0.60636982    0.04990000
opls_146-457    H    0.01027993    0.00276987    0.58909001    0.04990000
opls_146-458    H    0.96589987    0.97601008    0.62101000    0.04990000
opls_146-459    H    0.99199992    0.02241014    0.89823975    0.04990000
opls_146-460    H    0.03520984    0.05180991    0.86398999    0.04990000
opls_146-461    H    0.00573994    0.23298992    0.59511999    0.04990000
opls_146-462    H    0.96036990    0.26477995    0.60496022    0.04990000
opls_146-463    H    0.00362984    0.32562989    0.85488967    0.04990000
opls_146-464    H    0.04918995    0.29398992    0.84499003    0.04990000
opls_146-465    H    0.75285992    0.43879004    0.55597982    0.04990000
opls_146-466    H    0.85143987    0.38716993    0.59683001    0.04990000
opls_146-467    H    0.82274995    0.40558986    0.44230003    0.04930000
opls_146-468    H    0.78652992    0.41276987    0.87591965    0.04930000
opls_144-469    H    0.96189998    0.33230991    0.86993018    0.02950000
opls_144-470    H    0.92543992    0.99777995    0.64836025    0.02950000
opls_144-471    H    0.23684984    0.92130991    0.76106992    0.02950000
opls_185-472    H    0.82134988    0.39284994    0.02164972    0.04550000
opls_185-473    H    0.82594998    0.44016993    0.96427988    0.04550000
opls_140-474    H    0.87723999    0.38969988    0.05972999    0.10170000
opls_140-475    H    0.85967004    0.42254004    0.12637028    0.10090000
opls_140-476    H    0.87439000    0.44388998    0.03598003    0.10160000
opls_547-477    H    0.12359990    0.30401987    0.70879977    0.04930000
opls_547-478    H    0.07044997    0.30484994    0.71455971    0.04990000
opls_547-479    H    0.06843993    0.98150000    0.71743968    0.04990000
opls_547-480    H    0.12251996    0.98077995    0.72380990    0.04990000
opls_547-481    H    0.98658999    0.18383986    0.71748963    0.04990000
opls_547-482    H    0.98577988    0.10512011    0.71492966    0.04990000
opls_547-483    H    0.20660987    0.10179004    0.72244013    0.05000000
opls_547-484    H    0.20643983    0.18044988    0.71273964    0.04990000
opls_146-485    H    0.30201993    0.28766993    0.91146965    0.04990000
opls_146-486    H    0.38323996    0.38018001    0.91931024    0.04990000
opls_146-487    H    0.38985987    0.32001008    0.01913971    0.04990000
opls_146-488    H    0.26391995    0.39230012    0.70218988    0.04990000
opls_185-489    H    0.26285994    0.46044988    0.68724996    0.04550000
opls_185-490    H    0.27043995    0.43420996    0.58895026    0.04550000
opls_140-491    H    0.26093990    0.50226008    0.54020007    0.10160000
opls_140-492    H    0.29962985    0.49762989    0.57005967    0.10090000
opls_140-493    H    0.28195995    0.52230012    0.64947012    0.10160000
opls_146-494    H    0.43364994    0.42788998    0.65935018    0.04990000
opls_146-495    H    0.35063991    0.35376008    0.71771984    0.04990000
opls_146-496    H    0.38151987    0.32102995    0.63091977    0.04990000
opls_146-497    H    0.39253999    0.51772005    0.83567975    0.04990000
opls_185-498    H    0.30843003    0.51616993    0.81852010    0.04550000
opls_185-499    H    0.33594986    0.52544009    0.75745005    0.04550000
opls_140-500    H    0.33149990    0.58447005    0.84971977    0.10160000
opls_140-501    H    0.36522990    0.55919009    0.89977965    0.10160000
opls_140-502    H    0.33539999    0.55319009    0.95236980    0.10160000
opls_146-503    H    0.95545987    0.40093001    0.77651009    0.04990000
opls_146-504    H    0.85597993    0.45147005    0.71502012    0.04990000
opls_146-505    H    0.89516988    0.49862989    0.71215028    0.04990000
opls_146-506    H    0.89940984    0.28534994    0.79634988    0.04990000
opls_185-507    H    0.83008984    0.28572005    0.87812992    0.04550000
opls_185-508    H    0.86867991    0.28788998    0.89752009    0.04550000
opls_140-509    H    0.87104986    0.22670996    0.83191000    0.10160000
opls_140-510    H    0.83860001    0.23523013    0.74156971    0.10160000
opls_140-511    H    0.83635988    0.21891993    0.85578012    0.10160000
opls_144-512    H    0.77394990    0.78730991    0.81442023    0.02950000
opls_146-513    H    0.69276987    0.83601987    0.63434994    0.04990000
opls_146-514    H    0.65077987    0.79141993    0.61884024    0.04990000
opls_146-515    H    0.69900002    0.71487989    0.83492026    0.04990000
opls_146-516    H    0.74125983    0.75823013    0.84757971    0.04990000
opls_146-517    H    0.67748990    0.50530012    0.85341998    0.04990000
opls_146-518    H    0.71861988    0.46475000    0.83512009    0.04990000
opls_146-519    H    0.71977995    0.53166993    0.58913997    0.04930000
opls_146-520    H    0.67834991    0.57179004    0.60636982    0.04990000
opls_146-521    H    0.51027993    0.50276987    0.58909001    0.04990000
opls_146-522    H    0.46589987    0.47601008    0.62101000    0.04990000
opls_146-523    H    0.49199992    0.52241014    0.89823975    0.04990000
opls_146-524    H    0.53520984    0.55180991    0.86398999    0.04990000
opls_146-525    H    0.50573994    0.73298992    0.59511999    0.04990000
opls_146-526    H    0.46036990    0.76477995    0.60496022    0.04990000
opls_146-527    H    0.50362984    0.82562989    0.85488967    0.04990000
opls_146-528    H    0.54918995    0.79398992    0.84499003    0.05000000
opls_146-529    H    0.25285992    0.93879004    0.55597982    0.04990000
opls_146-530    H    0.35143987    0.88716993    0.59683001    0.04990000
opls_146-531    H    0.32274995    0.90558986    0.44230003    0.04930000
opls_146-532    H    0.28652992    0.91276987    0.87591965    0.04930000
opls_144-533    H    0.46189998    0.83230991    0.86993018    0.02950000
opls_144-534    H    0.42543992    0.49777995    0.64836025    0.02950000
opls_144-535    H    0.73684984    0.42130991    0.76106992    0.02950000
opls_185-536    H    0.32134988    0.89284994    0.02164972    0.04550000
opls_185-537    H    0.32594998    0.94016993    0.96427988    0.04550000
opls_140-538    H    0.37723999    0.88969988    0.05972999    0.10160000
opls_140-539    H    0.35967004    0.92254004    0.12637028    0.10090000
opls_140-540    H    0.37439000    0.94388998    0.03598003    0.10160000
opls_547-541    H    0.62359990    0.80401987    0.70879977    0.04930000
opls_547-542    H    0.57044997    0.80484994    0.71455971    0.04990000
opls_547-543    H    0.56843993    0.48150000    0.71743968    0.04990000
opls_547-544    H    0.62251996    0.48077995    0.72380990    0.04990000
opls_547-545    H    0.48658999    0.68383986    0.71748963    0.04990000
opls_547-546    H    0.48577988    0.60512011    0.71492966    0.04990000
opls_547-547    H    0.70660987    0.60179004    0.72244013    0.04990000
opls_547-548    H    0.70643983    0.68044988    0.71273964    0.04990000
opls_146-549    H    0.80201993    0.78766993    0.91146965    0.04990000
opls_146-550    H    0.88323996    0.88018001    0.91931024    0.04990000
opls_146-551    H    0.88985987    0.82001008    0.01913971    0.04990000
opls_146-552    H    0.76391995    0.89230012    0.70218988    0.04990000
opls_185-553    H    0.76285994    0.96044988    0.68724996    0.04550000
opls_185-554    H    0.77043995    0.93420996    0.58895026    0.04550000
opls_140-555    H    0.76093990    0.00226008    0.54020007    0.10160000
opls_140-556    H    0.79962985    0.99762989    0.57005967    0.10090000
opls_140-557    H    0.78195995    0.02230012    0.64947012    0.10160000
opls_146-558    H    0.93364994    0.92788998    0.65935018    0.04990000
opls_146-559    H    0.85063991    0.85376008    0.71771984    0.04990000
opls_146-560    H    0.88151987    0.82102995    0.63091977    0.04990000
opls_146-561    H    0.89253999    0.01772005    0.83567975    0.04990000
opls_185-562    H    0.80843003    0.01616993    0.81852010    0.04550000
opls_185-563    H    0.83594986    0.02544009    0.75745005    0.04550000
opls_140-564    H    0.83149990    0.08447005    0.84971977    0.10160000
opls_140-565    H    0.86522990    0.05919009    0.89977965    0.10160000
opls_140-566    H    0.83539999    0.05319009    0.95236980    0.10160000
opls_146-567    H    0.45545987    0.90093001    0.77651009    0.04990000
opls_146-568    H    0.35597993    0.95147005    0.71502012    0.04990000
opls_146-569    H    0.39516988    0.99862989    0.71215028    0.04990000
opls_146-570    H    0.39940984    0.78534994    0.79634988    0.04990000
opls_185-571    H    0.33008984    0.78572005    0.87812992    0.04550000
opls_185-572    H    0.36867991    0.78788998    0.89752009    0.04550000
opls_140-573    H    0.37104986    0.72670996    0.83191000    0.10160000
opls_140-574    H    0.33860001    0.73523013    0.74156971    0.10160000
opls_140-575    H    0.33635988    0.71891993    0.85578012    0.10160000
opls_144-576    H    0.72604990    0.28730991    0.18557977    0.02950000
opls_146-577    H    0.80722993    0.33601987    0.36565006    0.04990000
opls_146-578    H    0.84921992    0.29141993    0.38115976    0.05000000
opls_146-579    H    0.80099998    0.21487989    0.16507974    0.04990000
opls_146-580    H    0.75873997    0.25823013    0.15242029    0.04990000
opls_146-581    H    0.82250990    0.00530012    0.14658002    0.04990000
opls_146-582    H    0.78137992    0.96475000    0.16487991    0.04990000
opls_146-583    H    0.78022005    0.03166993    0.41086003    0.04930000
opls_146-584    H    0.82164989    0.07179004    0.39363018    0.04990000
opls_146-585    H    0.98971987    0.00276987    0.41090999    0.04990000
opls_146-586    H    0.03409993    0.97601008    0.37899000    0.04990000
opls_146-587    H    0.00800008    0.02241014    0.10176025    0.04990000
opls_146-588    H    0.96478995    0.05180991    0.13601001    0.04990000
opls_146-589    H    0.99426006    0.23298992    0.40488001    0.04990000
opls_146-590    H    0.03962989    0.26477995    0.39503978    0.04990000
opls_146-591    H    0.99636990    0.32562989    0.14510966    0.04990000
opls_146-592    H    0.95081005    0.29398992    0.15500997    0.04990000
opls_146-593    H    0.24713988    0.43879004    0.44402018    0.04990000
opls_146-594    H    0.14855993    0.38716993    0.40316999    0.04990000
opls_146-595    H    0.17725005    0.40558986    0.55769997    0.04930000
opls_146-596    H    0.21347003    0.41276987    0.12407967    0.04930000
opls_144-597    H    0.03810002    0.33230991    0.13006982    0.02950000
opls_144-598    H    0.07455988    0.99777995    0.35163975    0.02950000
opls_144-599    H    0.76314995    0.92130991    0.23893008    0.02950000
opls_185-600    H    0.17865012    0.39284994    0.97835028    0.04550000
opls_185-601    H    0.17405002    0.44016993    0.03572012    0.04550000
opls_140-602    H    0.12276001    0.38969988    0.94027001    0.10160000
opls_140-603    H    0.14032996    0.42254004    0.87362972    0.10090000
opls_140-604    H    0.12561000    0.44388998    0.96401997    0.10160000
opls_547-605    H    0.87639989    0.30401987    0.29120023    0.04930000
opls_547-606    H    0.92955003    0.30484994    0.28544029    0.04990000
opls_547-607    H    0.93156002    0.98150000    0.28255965    0.04990000
opls_547-608    H    0.87748004    0.98077995    0.27619010    0.04990000
opls_547-609    H    0.01340995    0.18383986    0.28250969    0.04990000
opls_547-610    H    0.01421987    0.10512011    0.28506966    0.04990000
opls_547-611    H    0.79338993    0.10179004    0.27755987    0.05000000
opls_547-612    H    0.79355992    0.18044988    0.28725968    0.04990000
opls_146-613    H    0.69798002    0.28766993    0.08852968    0.04990000
opls_146-614    H    0.61676004    0.38018001    0.08068976    0.04990000
opls_146-615    H    0.61013993    0.32001008    0.98086029    0.04990000
opls_146-616    H    0.73608005    0.39230012    0.29781012    0.04990000
opls_185-617    H    0.73714006    0.46044988    0.31275004    0.04550000
opls_185-618    H    0.72956005    0.43420996    0.41104974    0.04550000
opls_140-619    H    0.73905990    0.50226008    0.45979993    0.10160000
opls_140-620    H    0.70036989    0.49762989    0.42993966    0.10090000
opls_140-621    H    0.71804005    0.52230012    0.35052988    0.10160000
opls_146-622    H    0.56635006    0.42788998    0.34064982    0.04990000
opls_146-623    H    0.64936009    0.35376008    0.28228016    0.04990000
opls_146-624    H    0.61847993    0.32102995    0.36908023    0.04990000
opls_146-625    H    0.60746001    0.51772005    0.16432025    0.04990000
opls_185-626    H    0.69156997    0.51616993    0.18147990    0.04550000
opls_185-627    H    0.66404994    0.52544009    0.24254995    0.04550000
opls_140-628    H    0.66850010    0.58447005    0.15028023    0.10160000
opls_140-629    H    0.63477004    0.55919009    0.10021968    0.10160000
opls_140-630    H    0.66460001    0.55319009    0.04763020    0.10160000
opls_146-631    H    0.04453993    0.40093001    0.22348991    0.04990000
opls_146-632    H    0.14402007    0.45147005    0.28497988    0.04990000
opls_146-633    H    0.10482992    0.49862989    0.28784972    0.04990000
opls_146-634    H    0.10058996    0.28534994    0.20365012    0.04990000
opls_185-635    H    0.16990996    0.28572005    0.12187008    0.04550000
opls_185-636    H    0.13131989    0.28788998    0.10247991    0.04550000
opls_140-637    H    0.12894994    0.22670996    0.16809000    0.10160000
opls_140-638    H    0.16139999    0.23523013    0.25843029    0.10160000
opls_140-639    H    0.16363992    0.21891993    0.14421988    0.10160000
opls_144-640    H    0.22604990    0.78730991    0.18557977    0.02950000
opls_146-641    H    0.30722993    0.83601987    0.36565006    0.04990000
opls_146-642    H    0.34921992    0.79141993    0.38115976    0.04990000
opls_146-643    H    0.30099998    0.71487989    0.16507974    0.04990000
opls_146-644    H    0.25873997    0.75823013    0.15242029    0.04990000
opls_146-645    H    0.32250990    0.50530012    0.14658002    0.04990000
opls_146-646    H    0.28137992    0.46475000    0.16487991    0.04990000
opls_146-647    H    0.28022005    0.53166993    0.41086003    0.04930000
opls_146-648    H    0.32164989    0.57179004    0.39363018    0.04990000
opls_146-649    H    0.48971987    0.50276987    0.41090999    0.04990000
opls_146-650    H    0.53409993    0.47601008    0.37899000    0.04990000
opls_146-651    H    0.50800008    0.52241014    0.10176025    0.04990000
opls_146-652    H    0.46478995    0.55180991    0.13601001    0.04990000
opls_146-653    H    0.49426006    0.73298992    0.40488001    0.04990000
opls_146-654    H    0.53962989    0.76477995    0.39503978    0.04990000
opls_146-655    H    0.49636990    0.82562989    0.14510966    0.04990000
opls_146-656    H    0.45081005    0.79398992    0.15500997    0.04990000
opls_146-657    H    0.74713988    0.93879004    0.44402018    0.05000000
opls_146-658    H    0.64855993    0.88716993    0.40316999    0.04990000
opls_146-659    H    0.67724985    0.90558986    0.55769997    0.04930000
opls_146-660    H    0.71347003    0.91276987    0.12407967    0.04930000
opls_144-661    H    0.53810002    0.83230991    0.13006982    0.02950000
opls_144-662    H    0.57455988    0.49777995    0.35163975    0.02950000
opls_144-663    H    0.26314995    0.42130991    0.23893008    0.02950000
opls_185-664    H    0.67865012    0.89284994    0.97835028    0.04550000
opls_185-665    H    0.67405002    0.94016993    0.03572012    0.04550000
opls_140-666    H    0.62276001    0.88969988    0.94027001    0.10160000
opls_140-667    H    0.64032996    0.92254004    0.87362972    0.10090000
opls_140-668    H    0.62561000    0.94388998    0.96401997    0.10160000
opls_547-669    H    0.37639989    0.80401987    0.29120023    0.04930000
opls_547-670    H    0.42955003    0.80484994    0.28544029    0.04990000
opls_547-671    H    0.43156002    0.48150000    0.28255965    0.04990000
opls_547-672    H    0.37748004    0.48077995    0.27619010    0.04990000
opls_547-673    H    0.51340995    0.68383986    0.28250969    0.04990000
opls_547-674    H    0.51421987    0.60512011    0.28506966    0.04990000
opls_547-675    H    0.29338993    0.60179004    0.27755987    0.04990000
opls_547-676    H    0.29355992    0.68044988    0.28725968    0.04990000
opls_146-677    H    0.19798002    0.78766993    0.08852968    0.04990000
opls_146-678    H    0.11676004    0.88018001    0.08068976    0.04990000
opls_146-679    H    0.11013993    0.82001008    0.98086029    0.04990000
opls_146-680    H    0.23608005    0.89230012    0.29781012    0.04990000
opls_185-681    H    0.23714006    0.96044988    0.31275004    0.04550000
opls_185-682    H    0.22956005    0.93420996    0.41104974    0.04550000
opls_140-683    H    0.23905990    0.00226008    0.45979993    0.10160000
opls_140-684    H    0.20036989    0.99762989    0.42993966    0.10110000
opls_140-685    H    0.21804005    0.02230012    0.35052988    0.10160000
opls_146-686    H    0.06635006    0.92788998    0.34064982    0.04990000
opls_146-687    H    0.14936009    0.85376008    0.28228016    0.04990000
opls_146-688    H    0.11847993    0.82102995    0.36908023    0.04990000
opls_146-689    H    0.10746001    0.01772005    0.16432025    0.04990000
opls_185-690    H    0.19156997    0.01616993    0.18147990    0.04550000
opls_185-691    H    0.16404994    0.02544009    0.24254995    0.04550000
opls_140-692    H    0.16850010    0.08447005    0.15028023    0.10160000
opls_140-693    H    0.13477004    0.05919009    0.10021968    0.10160000
opls_140-694    H    0.16460001    0.05319009    0.04763020    0.10160000
opls_146-695    H    0.54453993    0.90093001    0.22348991    0.04990000
opls_146-696    H    0.64402007    0.95147005    0.28497988    0.04990000
opls_146-697    H    0.60482992    0.99862989    0.28784972    0.04990000
opls_146-698    H    0.60058996    0.78534994    0.20365012    0.04990000
opls_185-699    H    0.66990996    0.78572005    0.12187008    0.04550000
opls_185-700    H    0.63131989    0.78788998    0.10247991    0.04550000
opls_140-701    H    0.62894994    0.72670996    0.16809000    0.10160000
opls_140-702    H    0.66139999    0.73523013    0.25843029    0.10160000
opls_140-703    H    0.66363992    0.71891993    0.14421988    0.10160000
Cu2+-704    Cu    0.09631993    0.14276008    0.71652019    0.77940000
Cu2+-705    Cu    0.59631993    0.64276008    0.71652019    0.77940000
Cu2+-706    Cu    0.90367987    0.14276008    0.28347981    0.77940000
Cu2+-707    Cu    0.40367987    0.64276008    0.28347981    0.77930000
