#======================================================================
# Crystal Data Generated By AuToFF
#----------------------------------------------------------------------

data_AuToFF_phase_1

_cell_length_a                         8.0352
_cell_length_b                         31.6595
_cell_length_c                         54.8359
_cell_angle_alpha                      90.00
_cell_angle_beta                       90.00
_cell_angle_gamma                      90.00
_symmetry_space_group_name_H-M_alt     'P 1'
_symmetry_space_group_IT_number        1

loop_
_space_group_symop_operation_xyz
   'x, y, z'

loop_
   _atom_site_label
   _atom_site_type_symbol
   _atom_site_fract_x
   _atom_site_fract_y
   _atom_site_fract_z
   _atom_site_charge
opls_145-0    C    0.61293061    0.53275004    0.06632006    -0.16710000
opls_145-1    C    0.23711046    0.53264012    0.18753007    -0.16710000
opls_145-2    C    0.61293061    0.54332001    0.14227997    -0.15930000
opls_145-3    C    0.23711046    0.54321009    0.26348998    -0.15930000
opls_145-4    C    0.61293061    0.42409008    0.10959007    -0.16710000
opls_145-5    C    0.23711046    0.42397985    0.23079005    -0.16710000
opls_145-6    C    0.61356033    0.53302990    0.04086994    -0.15460000
opls_145-7    C    0.23774019    0.53291998    0.16207995    -0.15470000
opls_145-8    C    0.61356033    0.58134999    0.15515000    -0.15430000
opls_145-9    C    0.23774019    0.58124007    0.27634998    -0.15470000
opls_145-10    C    0.61356033    0.38577994    0.12216997    -0.15470000
opls_145-11    C    0.23774019    0.38567002    0.24337998    -0.15480000
opls_234-12    C    0.62288058    0.46703991    0.98693994    0.45410000
opls_234-13    C    0.24706043    0.46692999    0.10814995    0.45390000
opls_234-14    C    0.62288058    0.69525008    0.14912001    0.45410000
opls_234-15    C    0.24706043    0.69513985    0.27031999    0.45410000
opls_234-16    C    0.62288058    0.33787994    0.18212996    0.45410000
opls_234-17    C    0.24706043    0.33777002    0.30333997    0.45410000
opls_700-18    C    0.65070938    0.48007012    0.96096006    -0.04020000
opls_700-19    C    0.27489048    0.47995989    0.08217007    -0.04260000
opls_700-20    C    0.65070938    0.72770006    0.16862001    -0.04020000
opls_700-21    C    0.27489048    0.72759014    0.28983002    -0.04140000
opls_700-22    C    0.65070938    0.29240007    0.18861002    -0.04260000
opls_700-23    C    0.27489048    0.29228004    0.30981000    -0.04140000
opls_916-24    C    0.68790945    0.53936986    0.11916992    0.18040000
opls_916-25    C    0.31209055    0.53925994    0.24037993    0.18130000
opls_145-26    C    0.68790945    0.61737993    0.14517004    0.18390000
opls_145-27    C    0.31209055    0.61727001    0.26638005    0.18400000
opls_145-28    C    0.76460947    0.54134999    0.93939992    -0.15290000
opls_145-29    C    0.76460947    0.72941013    0.21003996    -0.15360000
opls_145-30    C    0.38879057    0.72929989    0.33124997    -0.15790000
opls_145-31    C    0.61293061    0.03275004    0.56632006    -0.16710000
opls_145-32    C    0.23711046    0.03264012    0.68753007    -0.16720000
opls_145-33    C    0.61293061    0.04332001    0.64227997    -0.15930000
opls_145-34    C    0.23711046    0.04321009    0.76348998    -0.15930000
opls_145-35    C    0.61293061    0.92409008    0.60959007    -0.16710000
opls_145-36    C    0.23711046    0.92397985    0.73079005    -0.16710000
opls_145-37    C    0.61356033    0.03302990    0.54086994    -0.15460000
opls_145-38    C    0.23774019    0.03291998    0.66207995    -0.15470000
opls_145-39    C    0.61356033    0.08134999    0.65515000    -0.15430000
opls_145-40    C    0.23774019    0.08124007    0.77634998    -0.15470000
opls_145-41    C    0.61356033    0.88577994    0.62216997    -0.15470000
opls_145-42    C    0.23774019    0.88567002    0.74337998    -0.15470000
opls_234-43    C    0.62288058    0.96703991    0.48693994    0.45410000
opls_234-44    C    0.24706043    0.96692999    0.60814995    0.45390000
opls_234-45    C    0.62288058    0.19525008    0.64912001    0.45410000
opls_234-46    C    0.24706043    0.19513985    0.77031999    0.45410000
opls_234-47    C    0.62288058    0.83787994    0.68212996    0.45410000
opls_234-48    C    0.24706043    0.83777002    0.80333997    0.45400000
opls_700-49    C    0.65070938    0.98007012    0.46096006    -0.04020000
opls_700-50    C    0.27489048    0.97995989    0.58217007    -0.04260000
opls_700-51    C    0.65070938    0.22770006    0.66862001    -0.04020000
opls_700-52    C    0.27489048    0.22759014    0.78983002    -0.04140000
opls_700-53    C    0.65070938    0.79240007    0.68861002    -0.04260000
opls_700-54    C    0.27489048    0.79228004    0.80981000    -0.04140000
opls_916-55    C    0.68790945    0.03936986    0.61916992    0.18040000
opls_916-56    C    0.31209055    0.03925994    0.74037993    0.18130000
opls_145-57    C    0.68790945    0.11737993    0.64517004    0.18400000
opls_145-58    C    0.31209055    0.11727001    0.76638005    0.18400000
opls_145-59    C    0.76460947    0.04134999    0.43939992    -0.15290000
opls_145-60    C    0.76460947    0.22941013    0.71003996    -0.15360000
opls_145-61    C    0.38879057    0.22929989    0.83124997    -0.15790000
opls_145-62    C    0.76288954    0.46735988    0.06632006    -0.16610000
opls_145-63    C    0.38706939    0.46724996    0.18753007    -0.15930000
opls_145-64    C    0.76288954    0.45678991    0.14227997    -0.16710000
opls_145-65    C    0.38706939    0.45667999    0.26348998    -0.15940000
opls_145-66    C    0.76288954    0.57602015    0.10959007    -0.16710000
opls_145-67    C    0.38706939    0.57590992    0.23079005    -0.16710000
opls_145-68    C    0.76225981    0.46708002    0.04086994    -0.15470000
opls_145-69    C    0.38643967    0.46697010    0.16207995    -0.15460000
opls_145-70    C    0.76225981    0.41875993    0.15515000    -0.15430000
opls_145-71    C    0.38643967    0.41865001    0.27634998    -0.15470000
opls_145-72    C    0.76225981    0.61432998    0.12216997    -0.15460000
opls_145-73    C    0.38643967    0.61422006    0.24337998    -0.15470000
opls_234-74    C    0.75293957    0.53307001    0.98693994    0.45390000
opls_234-75    C    0.37711942    0.53296009    0.10814995    0.45410000
opls_234-76    C    0.75293957    0.30486015    0.14912001    0.45390000
opls_234-77    C    0.37711942    0.30474992    0.27031999    0.45410000
opls_234-78    C    0.75293957    0.66222998    0.18212996    0.45410000
opls_234-79    C    0.37711942    0.66212006    0.30333997    0.45390000
opls_700-80    C    0.72510952    0.52004011    0.96096006    -0.04020000
opls_700-81    C    0.34929062    0.51992988    0.08217007    -0.04200000
opls_700-82    C    0.72510952    0.27240986    0.16862001    -0.04140000
opls_700-83    C    0.34929062    0.27229994    0.28983002    -0.04020000
opls_700-84    C    0.72510952    0.70771996    0.18861002    -0.04260000
opls_700-85    C    0.34929062    0.70759993    0.30981000    -0.04140000
opls_916-86    C    0.68790945    0.46074006    0.11916992    0.18050000
opls_916-87    C    0.31209055    0.46063014    0.24037993    0.18050000
opls_145-88    C    0.68790945    0.38272999    0.14517004    0.18400000
opls_145-89    C    0.31209055    0.38262007    0.26638005    0.18400000
opls_145-90    C    0.61120943    0.45875993    0.93939992    -0.15290000
opls_145-91    C    0.61120943    0.27070011    0.21003996    -0.15290000
opls_145-92    C    0.23539053    0.27058987    0.33124997    -0.15290000
opls_145-93    C    0.76288954    0.96735988    0.56632006    -0.16610000
opls_145-94    C    0.38706939    0.96724996    0.68753007    -0.15930000
opls_145-95    C    0.76288954    0.95678991    0.64227997    -0.16710000
opls_145-96    C    0.38706939    0.95667999    0.76348998    -0.15930000
opls_145-97    C    0.76288954    0.07602015    0.60959007    -0.16710000
opls_145-98    C    0.38706939    0.07590992    0.73079005    -0.16710000
opls_145-99    C    0.76225981    0.96708002    0.54086994    -0.15470000
opls_145-100    C    0.38643967    0.96697010    0.66207995    -0.15460000
opls_145-101    C    0.76225981    0.91875993    0.65515000    -0.15430000
opls_145-102    C    0.38643967    0.91865001    0.77634998    -0.15470000
opls_145-103    C    0.76225981    0.11432998    0.62216997    -0.15460000
opls_145-104    C    0.38643967    0.11422006    0.74337998    -0.15470000
opls_234-105    C    0.75293957    0.03307001    0.48693994    0.45390000
opls_234-106    C    0.37711942    0.03296009    0.60814995    0.45410000
opls_234-107    C    0.75293957    0.80486015    0.64912001    0.45390000
opls_234-108    C    0.37711942    0.80474992    0.77031999    0.45410000
opls_234-109    C    0.75293957    0.16222998    0.68212996    0.45410000
opls_234-110    C    0.37711942    0.16212006    0.80333997    0.45390000
opls_700-111    C    0.72510952    0.02004011    0.46096006    -0.04020000
opls_700-112    C    0.34929062    0.01992988    0.58217007    -0.04200000
opls_700-113    C    0.72510952    0.77240986    0.66862001    -0.04140000
opls_700-114    C    0.34929062    0.77229994    0.78983002    -0.04020000
opls_700-115    C    0.72510952    0.20771996    0.68861002    -0.04260000
opls_700-116    C    0.34929062    0.20759993    0.80981000    -0.04140000
opls_916-117    C    0.68790945    0.96074006    0.61916992    0.18050000
opls_916-118    C    0.31209055    0.96063014    0.74037993    0.18050000
opls_145-119    C    0.68790945    0.88272999    0.64517004    0.18390000
opls_145-120    C    0.31209055    0.88262007    0.76638005    0.18400000
opls_145-121    C    0.61120943    0.95875993    0.43939992    -0.15290000
opls_145-122    C    0.61120943    0.77070011    0.71003996    -0.15290000
opls_145-123    C    0.23539053    0.77058987    0.83124997    -0.15290000
opls_145-124    C    0.38706939    0.46724996    0.93367994    -0.16710000
opls_145-125    C    0.76288954    0.46735988    0.81246993    -0.16710000
opls_145-126    C    0.38706939    0.45667999    0.85772003    -0.15930000
opls_145-127    C    0.76288954    0.45678991    0.73651002    -0.15930000
opls_145-128    C    0.38706939    0.57590992    0.89040993    -0.16710000
opls_145-129    C    0.76288954    0.57602015    0.76920995    -0.16710000
opls_145-130    C    0.38643967    0.46697010    0.95913006    -0.15460000
opls_145-131    C    0.76225981    0.46708002    0.83792005    -0.15470000
opls_145-132    C    0.38643967    0.41865001    0.84485000    -0.15430000
opls_145-133    C    0.76225981    0.41875993    0.72365002    -0.15470000
opls_145-134    C    0.38643967    0.61422006    0.87783003    -0.15460000
opls_145-135    C    0.76225981    0.61432998    0.75662002    -0.15470000
opls_234-136    C    0.37711942    0.53296009    0.01306006    0.45410000
opls_234-137    C    0.75293957    0.53307001    0.89185005    0.45390000
opls_234-138    C    0.37711942    0.30474992    0.85087999    0.45410000
opls_234-139    C    0.75293957    0.30486015    0.72968001    0.45410000
opls_234-140    C    0.37711942    0.66212006    0.81787004    0.45410000
opls_234-141    C    0.75293957    0.66222998    0.69666003    0.45410000
opls_700-142    C    0.34929062    0.51992988    0.03903994    -0.04020000
opls_700-143    C    0.72510952    0.52004011    0.91782993    -0.04260000
opls_700-144    C    0.34929062    0.27229994    0.83137999    -0.04020000
opls_700-145    C    0.72510952    0.27240986    0.71016998    -0.04140000
opls_700-146    C    0.34929062    0.70759993    0.81138998    -0.04260000
opls_700-147    C    0.72510952    0.70771996    0.69019000    -0.04140000
opls_916-148    C    0.31209055    0.46063014    0.88083008    0.18040000
opls_916-149    C    0.68790945    0.46074006    0.75962007    0.18130000
opls_145-150    C    0.31209055    0.38262007    0.85482996    0.18400000
opls_145-151    C    0.68790945    0.38272999    0.73361995    0.18400000
opls_145-152    C    0.23539053    0.45865001    0.06060008    -0.15290000
opls_145-153    C    0.23539053    0.27058987    0.78996004    -0.15360000
opls_145-154    C    0.61120943    0.27070011    0.66875003    -0.15790000
opls_145-155    C    0.38706939    0.96724996    0.43367994    -0.16710000
opls_145-156    C    0.76288954    0.96735988    0.31246993    -0.16710000
opls_145-157    C    0.38706939    0.95667999    0.35772003    -0.15930000
opls_145-158    C    0.76288954    0.95678991    0.23651002    -0.15930000
opls_145-159    C    0.38706939    0.07590992    0.39040993    -0.16710000
opls_145-160    C    0.76288954    0.07602015    0.26920995    -0.16710000
opls_145-161    C    0.38643967    0.96697010    0.45913006    -0.15460000
opls_145-162    C    0.76225981    0.96708002    0.33792005    -0.15470000
opls_145-163    C    0.38643967    0.91865001    0.34485000    -0.15430000
opls_145-164    C    0.76225981    0.91875993    0.22365002    -0.15470000
opls_145-165    C    0.38643967    0.11422006    0.37783003    -0.15470000
opls_145-166    C    0.76225981    0.11432998    0.25662002    -0.15470000
opls_234-167    C    0.37711942    0.03296009    0.51306006    0.45410000
opls_234-168    C    0.75293957    0.03307001    0.39185005    0.45390000
opls_234-169    C    0.37711942    0.80474992    0.35087999    0.45410000
opls_234-170    C    0.75293957    0.80486015    0.22968001    0.45410000
opls_234-171    C    0.37711942    0.16212006    0.31787004    0.45400000
opls_234-172    C    0.75293957    0.16222998    0.19666003    0.45410000
opls_700-173    C    0.34929062    0.01992988    0.53903994    -0.04020000
opls_700-174    C    0.72510952    0.02004011    0.41782993    -0.04260000
opls_700-175    C    0.34929062    0.77229994    0.33137999    -0.04020000
opls_700-176    C    0.72510952    0.77240986    0.21016998    -0.04140000
opls_700-177    C    0.34929062    0.20759993    0.31138998    -0.04260000
opls_700-178    C    0.72510952    0.20771996    0.19019000    -0.04140000
opls_916-179    C    0.31209055    0.96063014    0.38083008    0.18040000
opls_916-180    C    0.68790945    0.96074006    0.25962007    0.18130000
opls_145-181    C    0.31209055    0.88262007    0.35482996    0.18400000
opls_145-182    C    0.68790945    0.88272999    0.23361995    0.18400000
opls_145-183    C    0.23539053    0.95865001    0.56060008    -0.15290000
opls_145-184    C    0.23539053    0.77058987    0.28996004    -0.15360000
opls_145-185    C    0.61120943    0.77070011    0.16875003    -0.15790000
opls_145-186    C    0.23711046    0.53264012    0.93367994    -0.16610000
opls_145-187    C    0.61293061    0.53275004    0.81246993    -0.15930000
opls_145-188    C    0.23711046    0.54321009    0.85772003    -0.16720000
opls_145-189    C    0.61293061    0.54332001    0.73651002    -0.15930000
opls_145-190    C    0.23711046    0.42397985    0.89040993    -0.16710000
opls_145-191    C    0.61293061    0.42409008    0.76920995    -0.16710000
opls_145-192    C    0.23774019    0.53291998    0.95913006    -0.15470000
opls_145-193    C    0.61356033    0.53302990    0.83792005    -0.15470000
opls_145-194    C    0.23774019    0.58124007    0.84485000    -0.15430000
opls_145-195    C    0.61356033    0.58134999    0.72365002    -0.15470000
opls_145-196    C    0.23774019    0.38567002    0.87783003    -0.15460000
opls_145-197    C    0.61356033    0.38577994    0.75662002    -0.15470000
opls_234-198    C    0.24706043    0.46692999    0.01306006    0.45390000
opls_234-199    C    0.62288058    0.46703991    0.89185005    0.45390000
opls_234-200    C    0.24706043    0.69513985    0.85087999    0.45390000
opls_234-201    C    0.62288058    0.69525008    0.72968001    0.45410000
opls_234-202    C    0.24706043    0.33777002    0.81787004    0.45400000
opls_234-203    C    0.62288058    0.33787994    0.69666003    0.45380000
opls_700-204    C    0.27489048    0.47995989    0.03903994    -0.04020000
opls_700-205    C    0.65070938    0.48007012    0.91782993    -0.04200000
opls_700-206    C    0.27489048    0.72759014    0.83137999    -0.04140000
opls_700-207    C    0.65070938    0.72770006    0.71016998    -0.04020000
opls_700-208    C    0.27489048    0.29228004    0.81138998    -0.04260000
opls_700-209    C    0.65070938    0.29240007    0.69019000    -0.04140000
opls_916-210    C    0.31209055    0.53925994    0.88083008    0.18050000
opls_916-211    C    0.68790945    0.53936986    0.75962007    0.18050000
opls_145-212    C    0.31209055    0.61727001    0.85482996    0.18400000
opls_145-213    C    0.68790945    0.61737993    0.73361995    0.18400000
opls_145-214    C    0.38879057    0.54124007    0.06060008    -0.15290000
opls_145-215    C    0.38879057    0.72929989    0.78996004    -0.15290000
opls_145-216    C    0.76460947    0.72941013    0.66875003    -0.15290000
opls_145-217    C    0.23711046    0.03264012    0.43367994    -0.16610000
opls_145-218    C    0.61293061    0.03275004    0.31246993    -0.15930000
opls_145-219    C    0.23711046    0.04321009    0.35772003    -0.16710000
opls_145-220    C    0.61293061    0.04332001    0.23651002    -0.15930000
opls_145-221    C    0.23711046    0.92397985    0.39040993    -0.16710000
opls_145-222    C    0.61293061    0.92409008    0.26920995    -0.16710000
opls_145-223    C    0.23774019    0.03291998    0.45913006    -0.15470000
opls_145-224    C    0.61356033    0.03302990    0.33792005    -0.15460000
opls_145-225    C    0.23774019    0.08124007    0.34485000    -0.15430000
opls_145-226    C    0.61356033    0.08134999    0.22365002    -0.15470000
opls_145-227    C    0.23774019    0.88567002    0.37783003    -0.15460000
opls_145-228    C    0.61356033    0.88577994    0.25662002    -0.15470000
opls_234-229    C    0.24706043    0.96692999    0.51306006    0.45390000
opls_234-230    C    0.62288058    0.96703991    0.39185005    0.45410000
opls_234-231    C    0.24706043    0.19513985    0.35087999    0.45390000
opls_234-232    C    0.62288058    0.19525008    0.22968001    0.45410000
opls_234-233    C    0.24706043    0.83777002    0.31787004    0.45400000
opls_234-234    C    0.62288058    0.83787994    0.19666003    0.45380000
opls_700-235    C    0.27489048    0.97995989    0.53903994    -0.04020000
opls_700-236    C    0.65070938    0.98007012    0.41782993    -0.04200000
opls_700-237    C    0.27489048    0.22759014    0.33137999    -0.04140000
opls_700-238    C    0.65070938    0.22770006    0.21016998    -0.04020000
opls_700-239    C    0.27489048    0.79228004    0.31138998    -0.04260000
opls_700-240    C    0.65070938    0.79240007    0.19019000    -0.04140000
opls_916-241    C    0.31209055    0.03925994    0.38083008    0.18050000
opls_916-242    C    0.68790945    0.03936986    0.25962007    0.18050000
opls_145-243    C    0.31209055    0.11727001    0.35482996    0.18400000
opls_145-244    C    0.68790945    0.11737993    0.23361995    0.18400000
opls_145-245    C    0.38879057    0.04124007    0.56060008    -0.15290000
opls_145-246    C    0.38879057    0.22929989    0.28996004    -0.15290000
opls_145-247    C    0.76460947    0.22941013    0.16875003    -0.15300000
opls_916-248    C    0.68790945    0.50006001    0.07985006    0.18040000
opls_145-249    C    0.68790945    0.50006001    0.02785000    0.18390000
opls_916-250    C    0.68790945    0.00006001    0.57985006    0.18040000
opls_145-251    C    0.68790945    0.00006001    0.52785000    0.18400000
opls_916-252    C    0.31209055    0.49993999    0.92014994    0.18040000
opls_145-253    C    0.31209055    0.49993999    0.97215000    0.18400000
opls_916-254    C    0.31209055    0.99993999    0.42014994    0.18040000
opls_145-255    C    0.31209055    0.99993999    0.47215000    0.18400000
opls_916-256    C    0.31209055    0.49993999    0.20106007    0.18040000
opls_145-257    C    0.31209055    0.49993999    0.14906001    0.18400000
opls_916-258    C    0.31209055    0.99993999    0.70106007    0.18020000
opls_145-259    C    0.31209055    0.99993999    0.64906001    0.18400000
opls_916-260    C    0.68790945    0.50006001    0.79893993    0.18040000
opls_145-261    C    0.68790945    0.50006001    0.85093999    0.18400000
opls_916-262    C    0.68790945    0.00006001    0.29893993    0.18040000
opls_145-263    C    0.68790945    0.00006001    0.35093999    0.18400000
opls_236-264    O    0.82140955    0.56497007    0.99442008    -0.37280000
opls_236-265    O    0.44557945    0.56486015    0.11563009    -0.37280000
opls_236-266    O    0.82140955    0.63505993    0.19434002    -0.37280000
opls_236-267    O    0.44557945    0.63495002    0.31555003    -0.37280000
opls_236-268    O    0.82140955    0.30013013    0.12942999    -0.37280000
opls_236-269    O    0.44557945    0.30001990    0.25062997    -0.37290000
opls_236-270    O    0.82140955    0.06497007    0.49442008    -0.37280000
opls_236-271    O    0.44557945    0.06486015    0.61563009    -0.37290000
opls_236-272    O    0.82140955    0.13505993    0.69434002    -0.37280000
opls_236-273    O    0.44557945    0.13495002    0.81555003    -0.37300000
opls_236-274    O    0.82140955    0.80013013    0.62942999    -0.37280000
opls_236-275    O    0.44557945    0.80001990    0.75062997    -0.37280000
opls_236-276    O    0.55442055    0.43513985    0.99442008    -0.37280000
opls_236-277    O    0.17859045    0.43502993    0.11563009    -0.37280000
opls_236-278    O    0.55442055    0.36504998    0.19434002    -0.37290000
opls_236-279    O    0.17859045    0.36494007    0.31555003    -0.37280000
opls_236-280    O    0.55442055    0.69998010    0.12942999    -0.37290000
opls_236-281    O    0.17859045    0.69986987    0.25062997    -0.37280000
opls_236-282    O    0.55442055    0.93513985    0.49442008    -0.37280000
opls_236-283    O    0.17859045    0.93502993    0.61563009    -0.37280000
opls_236-284    O    0.55442055    0.86504998    0.69434002    -0.37280000
opls_236-285    O    0.17859045    0.86494007    0.81555003    -0.37280000
opls_236-286    O    0.55442055    0.19998010    0.62942999    -0.37280000
opls_236-287    O    0.17859045    0.19986987    0.75062997    -0.37280000
opls_236-288    O    0.17859045    0.43502993    0.00557992    -0.37290000
opls_236-289    O    0.55442055    0.43513985    0.88436991    -0.37280000
opls_236-290    O    0.17859045    0.36494007    0.80565998    -0.37280000
opls_236-291    O    0.55442055    0.36504998    0.68444997    -0.37280000
opls_236-292    O    0.17859045    0.69986987    0.87057001    -0.37290000
opls_236-293    O    0.55442055    0.69998010    0.74937003    -0.37280000
opls_236-294    O    0.17859045    0.93502993    0.50557992    -0.37280000
opls_236-295    O    0.55442055    0.93513985    0.38436991    -0.37280000
opls_236-296    O    0.17859045    0.86494007    0.30565998    -0.37290000
opls_236-297    O    0.55442055    0.86504998    0.18444997    -0.37280000
opls_236-298    O    0.17859045    0.19986987    0.37057001    -0.37280000
opls_236-299    O    0.55442055    0.19998010    0.24937003    -0.37280000
opls_236-300    O    0.44557945    0.56486015    0.00557992    -0.37280000
opls_236-301    O    0.82140955    0.56497007    0.88436991    -0.37280000
opls_236-302    O    0.44557945    0.63495002    0.80565998    -0.37280000
opls_236-303    O    0.82140955    0.63505993    0.68444997    -0.37280000
opls_236-304    O    0.44557945    0.30001990    0.87057001    -0.37280000
opls_236-305    O    0.82140955    0.30013013    0.74937003    -0.37280000
opls_236-306    O    0.44557945    0.06486015    0.50557992    -0.37280000
opls_236-307    O    0.82140955    0.06497007    0.38436991    -0.37280000
opls_236-308    O    0.44557945    0.13495002    0.30565998    -0.37280000
opls_236-309    O    0.82140955    0.13505993    0.18444997    -0.37280000
opls_236-310    O    0.44557945    0.80001990    0.37057001    -0.37290000
opls_236-311    O    0.82140955    0.80013013    0.24937003    -0.37290000
opls_146-312    H    0.55202982    0.55877004    0.07573998    0.11790000
opls_146-313    H    0.17620968    0.55866012    0.19693996    0.11860000
opls_146-314    H    0.55202982    0.51619009    0.15058000    0.11860000
opls_146-315    H    0.17620968    0.51607985    0.27179001    0.11860000
opls_146-316    H    0.55202982    0.42521013    0.09186992    0.11800000
opls_146-317    H    0.17620968    0.42509989    0.21307993    0.11840000
opls_146-318    H    0.55158055    0.55865001    0.03115003    0.11490000
opls_146-319    H    0.17576040    0.55854009    0.15236004    0.11490000
opls_146-320    H    0.55158055    0.58312987    0.17282000    0.11490000
opls_146-321    H    0.17576040    0.58301995    0.29401998    0.11480000
opls_146-322    H    0.55158055    0.35839006    0.11422006    0.11490000
opls_146-323    H    0.17576040    0.35828014    0.23543007    0.11490000
opls_146-324    H    0.82167961    0.57264012    0.93939992    0.11600000
opls_146-325    H    0.82167961    0.71376996    0.22568992    0.11690000
opls_146-326    H    0.44585947    0.71364993    0.34689008    0.11610000
opls_146-327    H    0.55202982    0.05877004    0.57573998    0.11800000
opls_146-328    H    0.17620968    0.05866012    0.69693996    0.11860000
opls_146-329    H    0.55202982    0.01619009    0.65058000    0.11860000
opls_146-330    H    0.17620968    0.01607985    0.77179001    0.11860000
opls_146-331    H    0.55202982    0.92521013    0.59186992    0.11800000
opls_146-332    H    0.17620968    0.92509989    0.71307993    0.11840000
opls_146-333    H    0.55158055    0.05865001    0.53115003    0.11490000
opls_146-334    H    0.17576040    0.05854009    0.65236004    0.11490000
opls_146-335    H    0.55158055    0.08312987    0.67282000    0.11490000
opls_146-336    H    0.17576040    0.08301995    0.79401998    0.11490000
opls_146-337    H    0.55158055    0.85839006    0.61422006    0.11490000
opls_146-338    H    0.17576040    0.85828014    0.73543007    0.11490000
opls_146-339    H    0.82167961    0.07264012    0.43939992    0.11600000
opls_146-340    H    0.82167961    0.21376996    0.72568992    0.11690000
opls_146-341    H    0.44585947    0.21364993    0.84689008    0.11620000
opls_146-342    H    0.82379032    0.44133988    0.07573998    0.11800000
opls_146-343    H    0.44797018    0.44122996    0.19693996    0.11860000
opls_146-344    H    0.82379032    0.48392015    0.15058000    0.11860000
opls_146-345    H    0.44797018    0.48380991    0.27179001    0.11860000
opls_146-346    H    0.82379032    0.57490011    0.09186992    0.11800000
opls_146-347    H    0.44797018    0.57478987    0.21307993    0.11840000
opls_146-348    H    0.82423960    0.44145991    0.03115003    0.11490000
opls_146-349    H    0.44841945    0.44134999    0.15236004    0.11490000
opls_146-350    H    0.82423960    0.41698005    0.17282000    0.11490000
opls_146-351    H    0.44841945    0.41687013    0.29401998    0.11490000
opls_146-352    H    0.82423960    0.64171986    0.11422006    0.11480000
opls_146-353    H    0.44841945    0.64160994    0.23543007    0.11490000
opls_146-354    H    0.55414053    0.42747990    0.93939992    0.11670000
opls_146-355    H    0.55414053    0.28635007    0.22568992    0.11380000
opls_146-356    H    0.17832039    0.28623004    0.34689008    0.11670000
opls_146-357    H    0.82379032    0.94133988    0.57573998    0.11800000
opls_146-358    H    0.44797018    0.94122996    0.69693996    0.11860000
opls_146-359    H    0.82379032    0.98392015    0.65058000    0.11860000
opls_146-360    H    0.44797018    0.98380991    0.77179001    0.11860000
opls_146-361    H    0.82379032    0.07490011    0.59186992    0.11800000
opls_146-362    H    0.44797018    0.07478987    0.71307993    0.11840000
opls_146-363    H    0.82423960    0.94145991    0.53115003    0.11490000
opls_146-364    H    0.44841945    0.94134999    0.65236004    0.11490000
opls_146-365    H    0.82423960    0.91698005    0.67282000    0.11490000
opls_146-366    H    0.44841945    0.91687013    0.79401998    0.11490000
opls_146-367    H    0.82423960    0.14171986    0.61422006    0.11490000
opls_146-368    H    0.44841945    0.14160994    0.73543007    0.11490000
opls_146-369    H    0.55414053    0.92747990    0.43939992    0.11670000
opls_146-370    H    0.55414053    0.78635007    0.72568992    0.11380000
opls_146-371    H    0.17832039    0.78623004    0.84689008    0.11670000
opls_146-372    H    0.44797018    0.44122996    0.92426002    0.11800000
opls_146-373    H    0.82379032    0.44133988    0.80306004    0.11860000
opls_146-374    H    0.44797018    0.48380991    0.84942000    0.11860000
opls_146-375    H    0.82379032    0.48392015    0.72820999    0.11860000
opls_146-376    H    0.44797018    0.57478987    0.90813008    0.11800000
opls_146-377    H    0.82379032    0.57490011    0.78692007    0.11840000
opls_146-378    H    0.44841945    0.44134999    0.96884997    0.11490000
opls_146-379    H    0.82423960    0.44145991    0.84763996    0.11490000
opls_146-380    H    0.44841945    0.41687013    0.82718000    0.11480000
opls_146-381    H    0.82423960    0.41698005    0.70598002    0.11490000
opls_146-382    H    0.44841945    0.64160994    0.88577994    0.11490000
opls_146-383    H    0.82423960    0.64171986    0.76456993    0.11490000
opls_146-384    H    0.17832039    0.42735988    0.06060008    0.11600000
opls_146-385    H    0.17832039    0.28623004    0.77431008    0.11690000
opls_146-386    H    0.55414053    0.28635007    0.65310992    0.11620000
opls_146-387    H    0.44797018    0.94122996    0.42426002    0.11800000
opls_146-388    H    0.82379032    0.94133988    0.30306004    0.11860000
opls_146-389    H    0.44797018    0.98380991    0.34942000    0.11860000
opls_146-390    H    0.82379032    0.98392015    0.22820999    0.11860000
opls_146-391    H    0.44797018    0.07478987    0.40813008    0.11800000
opls_146-392    H    0.82379032    0.07490011    0.28692007    0.11840000
opls_146-393    H    0.44841945    0.94134999    0.46884997    0.11490000
opls_146-394    H    0.82423960    0.94145991    0.34763996    0.11490000
opls_146-395    H    0.44841945    0.91687013    0.32718000    0.11490000
opls_146-396    H    0.82423960    0.91698005    0.20598002    0.11490000
opls_146-397    H    0.44841945    0.14160994    0.38577994    0.11480000
opls_146-398    H    0.82423960    0.14171986    0.26456993    0.11490000
opls_146-399    H    0.17832039    0.92735988    0.56060008    0.11600000
opls_146-400    H    0.17832039    0.78623004    0.27431008    0.11690000
opls_146-401    H    0.55414053    0.78635007    0.15310992    0.11620000
opls_146-402    H    0.17620968    0.55866012    0.92426002    0.11800000
opls_146-403    H    0.55202982    0.55877004    0.80306004    0.11860000
opls_146-404    H    0.17620968    0.51607985    0.84942000    0.11860000
opls_146-405    H    0.55202982    0.51619009    0.72820999    0.11860000
opls_146-406    H    0.17620968    0.42509989    0.90813008    0.11800000
opls_146-407    H    0.55202982    0.42521013    0.78692007    0.11840000
opls_146-408    H    0.17576040    0.55854009    0.96884997    0.11490000
opls_146-409    H    0.55158055    0.55865001    0.84763996    0.11490000
opls_146-410    H    0.17576040    0.58301995    0.82718000    0.11490000
opls_146-411    H    0.55158055    0.58312987    0.70598002    0.11490000
opls_146-412    H    0.17576040    0.35828014    0.88577994    0.11490000
opls_146-413    H    0.55158055    0.35839006    0.76456993    0.11490000
opls_146-414    H    0.44585947    0.57252010    0.06060008    0.11670000
opls_146-415    H    0.44585947    0.71364993    0.77431008    0.11380000
opls_146-416    H    0.82167961    0.71376996    0.65310992    0.11670000
opls_146-417    H    0.17620968    0.05866012    0.42426002    0.11800000
opls_146-418    H    0.55202982    0.05877004    0.30306004    0.11860000
opls_146-419    H    0.17620968    0.01607985    0.34942000    0.11860000
opls_146-420    H    0.55202982    0.01619009    0.22820999    0.11860000
opls_146-421    H    0.17620968    0.92509989    0.40813008    0.11800000
opls_146-422    H    0.55202982    0.92521013    0.28692007    0.11840000
opls_146-423    H    0.17576040    0.05854009    0.46884997    0.11480000
opls_146-424    H    0.55158055    0.05865001    0.34763996    0.11490000
opls_146-425    H    0.17576040    0.08301995    0.32718000    0.11490000
opls_146-426    H    0.55158055    0.08312987    0.20598002    0.11490000
opls_146-427    H    0.17576040    0.85828014    0.38577994    0.11490000
opls_146-428    H    0.55158055    0.85839006    0.26456993    0.11490000
opls_146-429    H    0.44585947    0.07252010    0.56060008    0.11670000
opls_146-430    H    0.44585947    0.21364993    0.27431008    0.11380000
opls_146-431    H    0.82167961    0.21376996    0.15310992    0.11670000
opls_542-432    N    0.68790945    0.65672010    0.15828007    -0.19570000
opls_542-433    N    0.31209055    0.65660986    0.27949008    -0.19100000
opls_542-434    N    0.68790945    0.15672010    0.65828007    -0.19570000
opls_542-435    N    0.31209055    0.15660986    0.77949008    -0.19120000
opls_542-436    N    0.68790945    0.34339014    0.15828007    -0.19570000
opls_542-437    N    0.31209055    0.34327990    0.27949008    -0.19100000
opls_542-438    N    0.68790945    0.84339014    0.65828007    -0.19570000
opls_542-439    N    0.31209055    0.84327990    0.77949008    -0.19100000
opls_542-440    N    0.31209055    0.34327990    0.84171993    -0.19570000
opls_542-441    N    0.68790945    0.34339014    0.72050992    -0.19100000
opls_542-442    N    0.31209055    0.84327990    0.34171993    -0.19570000
opls_542-443    N    0.68790945    0.84339014    0.22050992    -0.19100000
opls_542-444    N    0.31209055    0.65660986    0.84171993    -0.19580000
opls_542-445    N    0.68790945    0.65672010    0.72050992    -0.19100000
opls_542-446    N    0.31209055    0.15660986    0.34171993    -0.19570000
opls_542-447    N    0.68790945    0.15672010    0.22050992    -0.19100000
opls_239-448    N    0.68790945    0.50006001    0.10606008    -0.12690000
opls_542-449    N    0.68790945    0.50006001    0.00161992    -0.19100000
opls_239-450    N    0.68790945    0.00006001    0.60606008    -0.12690000
opls_542-451    N    0.68790945    0.00006001    0.50161992    -0.19100000
opls_239-452    N    0.31209055    0.49993999    0.89393992    -0.12700000
opls_542-453    N    0.31209055    0.49993999    0.99838008    -0.19100000
opls_239-454    N    0.31209055    0.99993999    0.39393992    -0.12690000
opls_542-455    N    0.31209055    0.99993999    0.49838008    -0.19100000
opls_239-456    N    0.31209055    0.49993999    0.22726991    -0.12690000
opls_542-457    N    0.31209055    0.49993999    0.12282993    -0.19100000
opls_239-458    N    0.31209055    0.99993999    0.72726991    -0.12690000
opls_542-459    N    0.31209055    0.99993999    0.62282993    -0.19100000
opls_239-460    N    0.68790945    0.50006001    0.77273009    -0.12690000
opls_542-461    N    0.68790945    0.50006001    0.87717007    -0.19100000
opls_239-462    N    0.68790945    0.00006001    0.27273009    -0.12690000
opls_542-463    N    0.68790945    0.00006001    0.37717007    -0.19100000
