#======================================================================
# Crystal Data Generated By AuToFF
#----------------------------------------------------------------------

data_AuToFF_phase_1

_cell_length_a                         32.7300
_cell_length_b                         32.7300
_cell_length_c                         32.7300
_cell_angle_alpha                      90.00
_cell_angle_beta                       90.00
_cell_angle_gamma                      90.00
_symmetry_space_group_name_H-M_alt     'P 1'
_symmetry_space_group_IT_number        1

loop_
_space_group_symop_operation_xyz
   'x, y, z'

loop_
   _atom_site_label
   _atom_site_type_symbol
   _atom_site_fract_x
   _atom_site_fract_y
   _atom_site_fract_z
   _atom_site_charge
opls_521-0    C    0.25909991    0.70526001    0.82535014    0.12350000
opls_142-1    C    0.26238008    0.58460006    0.69709013    0.07250000
opls_521-2    C    0.25984998    0.67164986    0.79426001    0.12350000
opls_142-3    C    0.19287993    0.90646013    0.74771005    0.07290000
opls_141-4    C    0.47973999    0.50468011    0.75191995    -0.02660000
opls_521-5    C    0.16420012    0.74446991    0.77753987    -0.05180000
opls_700-6    C    0.12171005    0.74452001    0.77215002    0.00640000
opls_523-7    C    0.10601986    0.74283990    0.73230003    -0.11790000
opls_522-8    C    0.13231011    0.74072013    0.69872013    -0.16040000
opls_521-9    C    0.27684998    0.74375985    0.65593003    0.04640000
opls_700-10    C    0.26894012    0.73827987    0.61419004    0.00610000
opls_523-11    C    0.22835014    0.73308005    0.60152001    -0.12420000
opls_522-12    C    0.19650015    0.73432997    0.63010999    -0.16280000
opls_145-13    C    0.42816987    0.62531989    0.75439994    0.19610000
opls_145-14    C    0.62064986    0.57987015    0.75583013    0.19800000
opls_145-15    C    0.54242988    0.61561014    0.27545005    -0.17220000
opls_145-16    C    0.52450015    0.57671005    0.27600000    -0.12540000
opls_700-17    C    0.53531011    0.54750015    0.24639994    0.06760000
opls_145-18    C    0.56391995    0.55791995    0.21623006    -0.11700000
opls_145-19    C    0.58220012    0.59628995    0.21613993    -0.16850000
opls_145-20    C    0.38190009    0.55016010    0.27501986    -0.16330000
opls_145-21    C    0.41553987    0.52412007    0.27702994    -0.11310000
opls_700-22    C    0.44724992    0.52713993    0.24828995    0.06910000
opls_145-23    C    0.44512985    0.55750993    0.21798992    -0.12590000
opls_145-24    C    0.41172013    0.58417996    0.21650993    -0.16110000
opls_521-25    C    0.74090009    0.29473999    0.82535014    0.12370000
opls_142-26    C    0.73761992    0.41539994    0.69709013    0.07250000
opls_521-27    C    0.74015002    0.32835014    0.79426001    0.12370000
opls_142-28    C    0.80712007    0.09353987    0.74771005    0.07290000
opls_141-29    C    0.52026001    0.49531989    0.75191995    -0.02660000
opls_521-30    C    0.83579988    0.25553009    0.77753987    -0.05180000
opls_700-31    C    0.87828995    0.25547999    0.77215002    0.00640000
opls_523-32    C    0.89398014    0.25716010    0.73230003    -0.11790000
opls_522-33    C    0.86768989    0.25927987    0.69872013    -0.16050000
opls_521-34    C    0.72315002    0.25624015    0.65593003    0.04640000
opls_700-35    C    0.73105988    0.26172013    0.61419004    0.00610000
opls_523-36    C    0.77164986    0.26691995    0.60152001    -0.12420000
opls_522-37    C    0.80350015    0.26567003    0.63010999    -0.16280000
opls_145-38    C    0.57183013    0.37468011    0.75439994    0.19610000
opls_145-39    C    0.37935014    0.42012985    0.75583013    0.19800000
opls_145-40    C    0.45757012    0.38438986    0.27545005    -0.17220000
opls_145-41    C    0.47549985    0.42328995    0.27600000    -0.12540000
opls_700-42    C    0.46468989    0.45250015    0.24639994    0.06760000
opls_145-43    C    0.43608005    0.44208005    0.21623006    -0.11700000
opls_145-44    C    0.41779988    0.40371005    0.21613993    -0.16850000
opls_145-45    C    0.61809991    0.44983990    0.27501986    -0.16330000
opls_145-46    C    0.58446013    0.47587993    0.27702994    -0.11310000
opls_700-47    C    0.55275008    0.47286007    0.24828995    0.06910000
opls_145-48    C    0.55487015    0.44249007    0.21798992    -0.12590000
opls_145-49    C    0.58827987    0.41582004    0.21650993    -0.16110000
opls_521-50    C    0.74090009    0.70526001    0.17464986    0.12350000
opls_142-51    C    0.73761992    0.58460006    0.30290987    0.07250000
opls_521-52    C    0.74015002    0.67164986    0.20573999    0.12360000
opls_142-53    C    0.80712007    0.90646013    0.25228995    0.07290000
opls_141-54    C    0.52026001    0.50468011    0.24808005    -0.02660000
opls_521-55    C    0.83579988    0.74446991    0.22246013    -0.05180000
opls_700-56    C    0.87828995    0.74452001    0.22784998    0.00640000
opls_523-57    C    0.89398014    0.74283990    0.26769997    -0.11790000
opls_522-58    C    0.86768989    0.74072013    0.30127987    -0.16050000
opls_521-59    C    0.72315002    0.74375985    0.34406997    0.04640000
opls_700-60    C    0.73105988    0.73827987    0.38580996    0.00610000
opls_523-61    C    0.77164986    0.73308005    0.39847999    -0.12420000
opls_522-62    C    0.80350015    0.73432997    0.36989001    -0.16280000
opls_145-63    C    0.57183013    0.62531989    0.24560006    0.19610000
opls_145-64    C    0.37935014    0.57987015    0.24416987    0.19800000
opls_145-65    C    0.45757012    0.61561014    0.72454995    -0.17220000
opls_145-66    C    0.47549985    0.57671005    0.72400000    -0.12540000
opls_700-67    C    0.46468989    0.54750015    0.75360006    0.06760000
opls_145-68    C    0.43608005    0.55791995    0.78376994    -0.11700000
opls_145-69    C    0.41779988    0.59628995    0.78386007    -0.16850000
opls_145-70    C    0.61809991    0.55016010    0.72498014    -0.16330000
opls_145-71    C    0.58446013    0.52412007    0.72297006    -0.11310000
opls_700-72    C    0.55275008    0.52713993    0.75171005    0.06910000
opls_145-73    C    0.55487015    0.55750993    0.78201008    -0.12590000
opls_145-74    C    0.58827987    0.58417996    0.78349007    -0.16110000
opls_521-75    C    0.25909991    0.29473999    0.17464986    0.12350000
opls_142-76    C    0.26238008    0.41539994    0.30290987    0.07250000
opls_521-77    C    0.25984998    0.32835014    0.20573999    0.12350000
opls_142-78    C    0.19287993    0.09353987    0.25228995    0.07290000
opls_141-79    C    0.47973999    0.49531989    0.24808005    -0.02660000
opls_521-80    C    0.16420012    0.25553009    0.22246013    -0.05180000
opls_700-81    C    0.12171005    0.25547999    0.22784998    0.00640000
opls_523-82    C    0.10601986    0.25716010    0.26769997    -0.11790000
opls_522-83    C    0.13231011    0.25927987    0.30127987    -0.16040000
opls_521-84    C    0.27684998    0.25624015    0.34406997    0.04640000
opls_700-85    C    0.26894012    0.26172013    0.38580996    0.00610000
opls_523-86    C    0.22835014    0.26691995    0.39847999    -0.12420000
opls_522-87    C    0.19650015    0.26567003    0.36989001    -0.16280000
opls_145-88    C    0.42816987    0.37468011    0.24560006    0.19620000
opls_145-89    C    0.62064986    0.42012985    0.24416987    0.19800000
opls_145-90    C    0.54242988    0.38438986    0.72454995    -0.17220000
opls_145-91    C    0.52450015    0.42328995    0.72400000    -0.12540000
opls_700-92    C    0.53531011    0.45250015    0.75360006    0.06760000
opls_145-93    C    0.56391995    0.44208005    0.78376994    -0.11700000
opls_145-94    C    0.58220012    0.40371005    0.78386007    -0.16850000
opls_145-95    C    0.38190009    0.44983990    0.72498014    -0.16320000
opls_145-96    C    0.41553987    0.47587993    0.72297006    -0.11310000
opls_700-97    C    0.44724992    0.47286007    0.75171005    0.06910000
opls_145-98    C    0.44512985    0.44249007    0.78201008    -0.12590000
opls_145-99    C    0.41172013    0.41582004    0.78349007    -0.16110000
opls_521-100    C    0.82535014    0.25909991    0.70526001    0.12350000
opls_142-101    C    0.69709013    0.26238008    0.58460006    0.07250000
opls_521-102    C    0.79426001    0.25984998    0.67164986    0.12350000
opls_142-103    C    0.74771005    0.19287993    0.90646013    0.07290000
opls_141-104    C    0.75191995    0.47973999    0.50468011    -0.02660000
opls_521-105    C    0.77753987    0.16420012    0.74446991    -0.05180000
opls_700-106    C    0.77215002    0.12171005    0.74452001    0.00640000
opls_523-107    C    0.73230003    0.10601986    0.74283990    -0.11790000
opls_522-108    C    0.69872013    0.13231011    0.74072013    -0.16050000
opls_521-109    C    0.65593003    0.27684998    0.74375985    0.04640000
opls_700-110    C    0.61419004    0.26894012    0.73827987    0.00610000
opls_523-111    C    0.60152001    0.22835014    0.73308005    -0.12420000
opls_522-112    C    0.63010999    0.19650015    0.73432997    -0.16280000
opls_145-113    C    0.75439994    0.42816987    0.62531989    0.19610000
opls_145-114    C    0.75583013    0.62064986    0.57987015    0.19800000
opls_145-115    C    0.27545005    0.54242988    0.61561014    -0.17220000
opls_145-116    C    0.27600000    0.52450015    0.57671005    -0.12540000
opls_700-117    C    0.24639994    0.53531011    0.54750015    0.06770000
opls_145-118    C    0.21623006    0.56391995    0.55791995    -0.11700000
opls_145-119    C    0.21613993    0.58220012    0.59628995    -0.16850000
opls_145-120    C    0.27501986    0.38190009    0.55016010    -0.16330000
opls_145-121    C    0.27702994    0.41553987    0.52412007    -0.11310000
opls_700-122    C    0.24828995    0.44724992    0.52713993    0.06910000
opls_145-123    C    0.21798992    0.44512985    0.55750993    -0.12590000
opls_145-124    C    0.21650993    0.41172013    0.58417996    -0.16110000
opls_521-125    C    0.82535014    0.74090009    0.29473999    0.12360000
opls_142-126    C    0.69709013    0.73761992    0.41539994    0.07250000
opls_521-127    C    0.79426001    0.74015002    0.32835014    0.12350000
opls_142-128    C    0.74771005    0.80712007    0.09353987    0.07300000
opls_141-129    C    0.75191995    0.52026001    0.49531989    -0.02660000
opls_521-130    C    0.77753987    0.83579988    0.25553009    -0.05180000
opls_700-131    C    0.77215002    0.87828995    0.25547999    0.00640000
opls_523-132    C    0.73230003    0.89398014    0.25716010    -0.11780000
opls_522-133    C    0.69872013    0.86768989    0.25927987    -0.16050000
opls_521-134    C    0.65593003    0.72315002    0.25624015    0.04640000
opls_700-135    C    0.61419004    0.73105988    0.26172013    0.00610000
opls_523-136    C    0.60152001    0.77164986    0.26691995    -0.12420000
opls_522-137    C    0.63010999    0.80350015    0.26567003    -0.16280000
opls_145-138    C    0.75439994    0.57183013    0.37468011    0.19620000
opls_145-139    C    0.75583013    0.37935014    0.42012985    0.19800000
opls_145-140    C    0.27545005    0.45757012    0.38438986    -0.17220000
opls_145-141    C    0.27600000    0.47549985    0.42328995    -0.12540000
opls_700-142    C    0.24639994    0.46468989    0.45250015    0.06760000
opls_145-143    C    0.21623006    0.43608005    0.44208005    -0.11700000
opls_145-144    C    0.21613993    0.41779988    0.40371005    -0.16850000
opls_145-145    C    0.27501986    0.61809991    0.44983990    -0.16330000
opls_145-146    C    0.27702994    0.58446013    0.47587993    -0.11310000
opls_700-147    C    0.24828995    0.55275008    0.47286007    0.06910000
opls_145-148    C    0.21798992    0.55487015    0.44249007    -0.12580000
opls_145-149    C    0.21650993    0.58827987    0.41582004    -0.16110000
opls_521-150    C    0.17464986    0.74090009    0.70526001    0.12350000
opls_142-151    C    0.30290987    0.73761992    0.58460006    0.07250000
opls_521-152    C    0.20573999    0.74015002    0.67164986    0.12350000
opls_142-153    C    0.25228995    0.80712007    0.90646013    0.07290000
opls_141-154    C    0.24808005    0.52026001    0.50468011    -0.02660000
opls_521-155    C    0.22246013    0.83579988    0.74446991    -0.05180000
opls_700-156    C    0.22784998    0.87828995    0.74452001    0.00640000
opls_523-157    C    0.26769997    0.89398014    0.74283990    -0.11790000
opls_522-158    C    0.30127987    0.86768989    0.74072013    -0.16050000
opls_521-159    C    0.34406997    0.72315002    0.74375985    0.04640000
opls_700-160    C    0.38580996    0.73105988    0.73827987    0.00610000
opls_523-161    C    0.39847999    0.77164986    0.73308005    -0.12410000
opls_522-162    C    0.36989001    0.80350015    0.73432997    -0.16270000
opls_145-163    C    0.24560006    0.57183013    0.62531989    0.19620000
opls_145-164    C    0.24416987    0.37935014    0.57987015    0.19800000
opls_145-165    C    0.72454995    0.45757012    0.61561014    -0.17220000
opls_145-166    C    0.72400000    0.47549985    0.57671005    -0.12540000
opls_700-167    C    0.75360006    0.46468989    0.54750015    0.06760000
opls_145-168    C    0.78376994    0.43608005    0.55791995    -0.11700000
opls_145-169    C    0.78386007    0.41779988    0.59628995    -0.16850000
opls_145-170    C    0.72498014    0.61809991    0.55016010    -0.16330000
opls_145-171    C    0.72297006    0.58446013    0.52412007    -0.11310000
opls_700-172    C    0.75171005    0.55275008    0.52713993    0.06920000
opls_145-173    C    0.78201008    0.55487015    0.55750993    -0.12590000
opls_145-174    C    0.78349007    0.58827987    0.58417996    -0.16110000
opls_521-175    C    0.17464986    0.25909991    0.29473999    0.12350000
opls_142-176    C    0.30290987    0.26238008    0.41539994    0.07260000
opls_521-177    C    0.20573999    0.25984998    0.32835014    0.12350000
opls_142-178    C    0.25228995    0.19287993    0.09353987    0.07290000
opls_141-179    C    0.24808005    0.47973999    0.49531989    -0.02660000
opls_521-180    C    0.22246013    0.16420012    0.25553009    -0.05180000
opls_700-181    C    0.22784998    0.12171005    0.25547999    0.00640000
opls_523-182    C    0.26769997    0.10601986    0.25716010    -0.11790000
opls_522-183    C    0.30127987    0.13231011    0.25927987    -0.16040000
opls_521-184    C    0.34406997    0.27684998    0.25624015    0.04640000
opls_700-185    C    0.38580996    0.26894012    0.26172013    0.00610000
opls_523-186    C    0.39847999    0.22835014    0.26691995    -0.12420000
opls_522-187    C    0.36989001    0.19650015    0.26567003    -0.16270000
opls_145-188    C    0.24560006    0.42816987    0.37468011    0.19610000
opls_145-189    C    0.24416987    0.62064986    0.42012985    0.19800000
opls_145-190    C    0.72454995    0.54242988    0.38438986    -0.17220000
opls_145-191    C    0.72400000    0.52450015    0.42328995    -0.12540000
opls_700-192    C    0.75360006    0.53531011    0.45250015    0.06770000
opls_145-193    C    0.78376994    0.56391995    0.44208005    -0.11700000
opls_145-194    C    0.78386007    0.58220012    0.40371005    -0.16850000
opls_145-195    C    0.72498014    0.38190009    0.44983990    -0.16330000
opls_145-196    C    0.72297006    0.41553987    0.47587993    -0.11310000
opls_700-197    C    0.75171005    0.44724992    0.47286007    0.06910000
opls_145-198    C    0.78201008    0.44512985    0.44249007    -0.12590000
opls_145-199    C    0.78349007    0.41172013    0.41582004    -0.16110000
opls_521-200    C    0.70526001    0.17464986    0.74090009    0.12350000
opls_142-201    C    0.58460006    0.30290987    0.73761992    0.07250000
opls_521-202    C    0.67164986    0.20573999    0.74015002    0.12350000
opls_142-203    C    0.90646013    0.25228995    0.80712007    0.07290000
opls_141-204    C    0.50468011    0.24808005    0.52026001    -0.02660000
opls_521-205    C    0.74446991    0.22246013    0.83579988    -0.05180000
opls_700-206    C    0.74452001    0.22784998    0.87828995    0.00640000
opls_523-207    C    0.74283990    0.26769997    0.89398014    -0.11790000
opls_522-208    C    0.74072013    0.30127987    0.86768989    -0.16050000
opls_521-209    C    0.74375985    0.34406997    0.72315002    0.04640000
opls_700-210    C    0.73827987    0.38580996    0.73105988    0.00610000
opls_523-211    C    0.73308005    0.39847999    0.77164986    -0.12420000
opls_522-212    C    0.73432997    0.36989001    0.80350015    -0.16280000
opls_145-213    C    0.62531989    0.24560006    0.57183013    0.19610000
opls_145-214    C    0.57987015    0.24416987    0.37935014    0.19810000
opls_145-215    C    0.61561014    0.72454995    0.45757012    -0.17220000
opls_145-216    C    0.57671005    0.72400000    0.47549985    -0.12530000
opls_700-217    C    0.54750015    0.75360006    0.46468989    0.06760000
opls_145-218    C    0.55791995    0.78376994    0.43608005    -0.11700000
opls_145-219    C    0.59628995    0.78386007    0.41779988    -0.16850000
opls_145-220    C    0.55016010    0.72498014    0.61809991    -0.16330000
opls_145-221    C    0.52412007    0.72297006    0.58446013    -0.11310000
opls_700-222    C    0.52713993    0.75171005    0.55275008    0.06910000
opls_145-223    C    0.55750993    0.78201008    0.55487015    -0.12590000
opls_145-224    C    0.58417996    0.78349007    0.58827987    -0.16110000
opls_521-225    C    0.29473999    0.17464986    0.25909991    0.12350000
opls_142-226    C    0.41539994    0.30290987    0.26238008    0.07250000
opls_521-227    C    0.32835014    0.20573999    0.25984998    0.12350000
opls_142-228    C    0.09353987    0.25228995    0.19287993    0.07290000
opls_141-229    C    0.49531989    0.24808005    0.47973999    -0.02660000
opls_521-230    C    0.25553009    0.22246013    0.16420012    -0.05180000
opls_700-231    C    0.25547999    0.22784998    0.12171005    0.00640000
opls_523-232    C    0.25716010    0.26769997    0.10601986    -0.11790000
opls_522-233    C    0.25927987    0.30127987    0.13231011    -0.16050000
opls_521-234    C    0.25624015    0.34406997    0.27684998    0.04640000
opls_700-235    C    0.26172013    0.38580996    0.26894012    0.00610000
opls_523-236    C    0.26691995    0.39847999    0.22835014    -0.12420000
opls_522-237    C    0.26567003    0.36989001    0.19650015    -0.16280000
opls_145-238    C    0.37468011    0.24560006    0.42816987    0.19610000
opls_145-239    C    0.42012985    0.24416987    0.62064986    0.19800000
opls_145-240    C    0.38438986    0.72454995    0.54242988    -0.17220000
opls_145-241    C    0.42328995    0.72400000    0.52450015    -0.12540000
opls_700-242    C    0.45250015    0.75360006    0.53531011    0.06760000
opls_145-243    C    0.44208005    0.78376994    0.56391995    -0.11700000
opls_145-244    C    0.40371005    0.78386007    0.58220012    -0.16850000
opls_145-245    C    0.44983990    0.72498014    0.38190009    -0.16320000
opls_145-246    C    0.47587993    0.72297006    0.41553987    -0.11310000
opls_700-247    C    0.47286007    0.75171005    0.44724992    0.06910000
opls_145-248    C    0.44249007    0.78201008    0.44512985    -0.12590000
opls_145-249    C    0.41582004    0.78349007    0.41172013    -0.16110000
opls_521-250    C    0.70526001    0.82535014    0.25909991    0.12350000
opls_142-251    C    0.58460006    0.69709013    0.26238008    0.07250000
opls_521-252    C    0.67164986    0.79426001    0.25984998    0.12350000
opls_142-253    C    0.90646013    0.74771005    0.19287993    0.07290000
opls_141-254    C    0.50468011    0.75191995    0.47973999    -0.02660000
opls_521-255    C    0.74446991    0.77753987    0.16420012    -0.05180000
opls_700-256    C    0.74452001    0.77215002    0.12171005    0.00640000
opls_523-257    C    0.74283990    0.73230003    0.10601986    -0.11790000
opls_522-258    C    0.74072013    0.69872013    0.13231011    -0.16050000
opls_521-259    C    0.74375985    0.65593003    0.27684998    0.04640000
opls_700-260    C    0.73827987    0.61419004    0.26894012    0.00610000
opls_523-261    C    0.73308005    0.60152001    0.22835014    -0.12420000
opls_522-262    C    0.73432997    0.63010999    0.19650015    -0.16280000
opls_145-263    C    0.62531989    0.75439994    0.42816987    0.19610000
opls_145-264    C    0.57987015    0.75583013    0.62064986    0.19810000
opls_145-265    C    0.61561014    0.27545005    0.54242988    -0.17220000
opls_145-266    C    0.57671005    0.27600000    0.52450015    -0.12540000
opls_700-267    C    0.54750015    0.24639994    0.53531011    0.06760000
opls_145-268    C    0.55791995    0.21623006    0.56391995    -0.11700000
opls_145-269    C    0.59628995    0.21613993    0.58220012    -0.16850000
opls_145-270    C    0.55016010    0.27501986    0.38190009    -0.16330000
opls_145-271    C    0.52412007    0.27702994    0.41553987    -0.11310000
opls_700-272    C    0.52713993    0.24828995    0.44724992    0.06910000
opls_145-273    C    0.55750993    0.21798992    0.44512985    -0.12590000
opls_145-274    C    0.58417996    0.21650993    0.41172013    -0.16110000
opls_521-275    C    0.29473999    0.82535014    0.74090009    0.12350000
opls_142-276    C    0.41539994    0.69709013    0.73761992    0.07250000
opls_521-277    C    0.32835014    0.79426001    0.74015002    0.12350000
opls_142-278    C    0.09353987    0.74771005    0.80712007    0.07290000
opls_141-279    C    0.49531989    0.75191995    0.52026001    -0.02660000
opls_521-280    C    0.25553009    0.77753987    0.83579988    -0.05170000
opls_700-281    C    0.25547999    0.77215002    0.87828995    0.00640000
opls_523-282    C    0.25716010    0.73230003    0.89398014    -0.11790000
opls_522-283    C    0.25927987    0.69872013    0.86768989    -0.16040000
opls_521-284    C    0.25624015    0.65593003    0.72315002    0.04640000
opls_700-285    C    0.26172013    0.61419004    0.73105988    0.00610000
opls_523-286    C    0.26691995    0.60152001    0.77164986    -0.12420000
opls_522-287    C    0.26567003    0.63010999    0.80350015    -0.16280000
opls_145-288    C    0.37468011    0.75439994    0.57183013    0.19610000
opls_145-289    C    0.42012985    0.75583013    0.37935014    0.19800000
opls_145-290    C    0.38438986    0.27545005    0.45757012    -0.17220000
opls_145-291    C    0.42328995    0.27600000    0.47549985    -0.12540000
opls_700-292    C    0.45250015    0.24639994    0.46468989    0.06760000
opls_145-293    C    0.44208005    0.21623006    0.43608005    -0.11700000
opls_145-294    C    0.40371005    0.21613993    0.41779988    -0.16850000
opls_145-295    C    0.44983990    0.27501986    0.61809991    -0.16330000
opls_145-296    C    0.47587993    0.27702994    0.58446013    -0.11310000
opls_700-297    C    0.47286007    0.24828995    0.55275008    0.06910000
opls_145-298    C    0.44249007    0.21798992    0.55487015    -0.12580000
opls_145-299    C    0.41582004    0.21650993    0.58827987    -0.16110000
opls_521-300    C    0.75909991    0.20526001    0.32535014    0.12350000
opls_142-301    C    0.76238008    0.08460006    0.19709013    0.07250000
opls_521-302    C    0.75984998    0.17164986    0.29426001    0.12350000
opls_142-303    C    0.69287993    0.40646013    0.24771005    0.07290000
opls_141-304    C    0.97973999    0.00468011    0.25191995    -0.02660000
opls_521-305    C    0.66420012    0.24446991    0.27753987    -0.05180000
opls_700-306    C    0.62171005    0.24452001    0.27215002    0.00640000
opls_523-307    C    0.60601986    0.24283990    0.23230003    -0.11790000
opls_522-308    C    0.63231011    0.24072013    0.19872013    -0.16050000
opls_521-309    C    0.77684998    0.24375985    0.15593003    0.04640000
opls_700-310    C    0.76894012    0.23827987    0.11419004    0.00610000
opls_523-311    C    0.72835014    0.23308005    0.10152001    -0.12420000
opls_522-312    C    0.69649985    0.23432997    0.13010999    -0.16280000
opls_145-313    C    0.92816987    0.12531989    0.25439994    0.19610000
opls_145-314    C    0.12064986    0.07987015    0.25583013    0.19800000
opls_145-315    C    0.04242988    0.11561014    0.77545005    -0.17220000
opls_145-316    C    0.02449985    0.07671005    0.77600000    -0.12540000
opls_700-317    C    0.03531011    0.04750015    0.74639994    0.06760000
opls_145-318    C    0.06391995    0.05791995    0.71623006    -0.11700000
opls_145-319    C    0.08220012    0.09628995    0.71613993    -0.16850000
opls_145-320    C    0.88190009    0.05016010    0.77501986    -0.16330000
opls_145-321    C    0.91553987    0.02412007    0.77702994    -0.11310000
opls_700-322    C    0.94724992    0.02713993    0.74828995    0.06910000
opls_145-323    C    0.94512985    0.05750993    0.71798992    -0.12590000
opls_145-324    C    0.91172013    0.08417996    0.71650993    -0.16110000
opls_521-325    C    0.24090009    0.79473999    0.32535014    0.12350000
opls_142-326    C    0.23761992    0.91539994    0.19709013    0.07260000
opls_521-327    C    0.24015002    0.82835014    0.29426001    0.12350000
opls_142-328    C    0.30712007    0.59353987    0.24771005    0.07290000
opls_141-329    C    0.02026001    0.99531989    0.25191995    -0.02660000
opls_521-330    C    0.33579988    0.75553009    0.27753987    -0.05180000
opls_700-331    C    0.37828995    0.75547999    0.27215002    0.00640000
opls_523-332    C    0.39398014    0.75716010    0.23230003    -0.11790000
opls_522-333    C    0.36768989    0.75927987    0.19872013    -0.16050000
opls_521-334    C    0.22315002    0.75624015    0.15593003    0.04640000
opls_700-335    C    0.23105988    0.76172013    0.11419004    0.00610000
opls_523-336    C    0.27164986    0.76691995    0.10152001    -0.12410000
opls_522-337    C    0.30350015    0.76567003    0.13010999    -0.16280000
opls_145-338    C    0.07183013    0.87468011    0.25439994    0.19610000
opls_145-339    C    0.87935014    0.92012985    0.25583013    0.19800000
opls_145-340    C    0.95757012    0.88438986    0.77545005    -0.17210000
opls_145-341    C    0.97549985    0.92328995    0.77600000    -0.12540000
opls_700-342    C    0.96468989    0.95250015    0.74639994    0.06760000
opls_145-343    C    0.93608005    0.94208005    0.71623006    -0.11700000
opls_145-344    C    0.91779988    0.90371005    0.71613993    -0.16850000
opls_145-345    C    0.11809991    0.94983990    0.77501986    -0.16330000
opls_145-346    C    0.08446013    0.97587993    0.77702994    -0.11310000
opls_700-347    C    0.05275008    0.97286007    0.74828995    0.06910000
opls_145-348    C    0.05487015    0.94249007    0.71798992    -0.12590000
opls_145-349    C    0.08827987    0.91582004    0.71650993    -0.16110000
opls_521-350    C    0.24090009    0.20526001    0.67464986    0.12350000
opls_142-351    C    0.23761992    0.08460006    0.80290987    0.07250000
opls_521-352    C    0.24015002    0.17164986    0.70573999    0.12350000
opls_142-353    C    0.30712007    0.40646013    0.75228995    0.07290000
opls_141-354    C    0.02026001    0.00468011    0.74808005    -0.02650000
opls_521-355    C    0.33579988    0.24446991    0.72246013    -0.05180000
opls_700-356    C    0.37828995    0.24452001    0.72784998    0.00640000
opls_523-357    C    0.39398014    0.24283990    0.76769997    -0.11780000
opls_522-358    C    0.36768989    0.24072013    0.80127987    -0.16050000
opls_521-359    C    0.22315002    0.24375985    0.84406997    0.04640000
opls_700-360    C    0.23105988    0.23827987    0.88580996    0.00610000
opls_523-361    C    0.27164986    0.23308005    0.89847999    -0.12420000
opls_522-362    C    0.30350015    0.23432997    0.86989001    -0.16280000
opls_145-363    C    0.07183013    0.12531989    0.74560006    0.19620000
opls_145-364    C    0.87935014    0.07987015    0.74416987    0.19800000
opls_145-365    C    0.95757012    0.11561014    0.22454995    -0.17220000
opls_145-366    C    0.97549985    0.07671005    0.22400000    -0.12540000
opls_700-367    C    0.96468989    0.04750015    0.25360006    0.06760000
opls_145-368    C    0.93608005    0.05791995    0.28376994    -0.11700000
opls_145-369    C    0.91779988    0.09628995    0.28386007    -0.16850000
opls_145-370    C    0.11809991    0.05016010    0.22498014    -0.16330000
opls_145-371    C    0.08446013    0.02412007    0.22297006    -0.11310000
opls_700-372    C    0.05275008    0.02713993    0.25171005    0.06910000
opls_145-373    C    0.05487015    0.05750993    0.28201008    -0.12590000
opls_145-374    C    0.08827987    0.08417996    0.28349007    -0.16110000
opls_521-375    C    0.75909991    0.79473999    0.67464986    0.12350000
opls_142-376    C    0.76238008    0.91539994    0.80290987    0.07250000
opls_521-377    C    0.75984998    0.82835014    0.70573999    0.12350000
opls_142-378    C    0.69287993    0.59353987    0.75228995    0.07300000
opls_141-379    C    0.97973999    0.99531989    0.74808005    -0.02660000
opls_521-380    C    0.66420012    0.75553009    0.72246013    -0.05180000
opls_700-381    C    0.62171005    0.75547999    0.72784998    0.00640000
opls_523-382    C    0.60601986    0.75716010    0.76769997    -0.11790000
opls_522-383    C    0.63231011    0.75927987    0.80127987    -0.16050000
opls_521-384    C    0.77684998    0.75624015    0.84406997    0.04640000
opls_700-385    C    0.76894012    0.76172013    0.88580996    0.00610000
opls_523-386    C    0.72835014    0.76691995    0.89847999    -0.12420000
opls_522-387    C    0.69649985    0.76567003    0.86989001    -0.16280000
opls_145-388    C    0.92816987    0.87468011    0.74560006    0.19610000
opls_145-389    C    0.12064986    0.92012985    0.74416987    0.19820000
opls_145-390    C    0.04242988    0.88438986    0.22454995    -0.17220000
opls_145-391    C    0.02449985    0.92328995    0.22400000    -0.12540000
opls_700-392    C    0.03531011    0.95250015    0.25360006    0.06760000
opls_145-393    C    0.06391995    0.94208005    0.28376994    -0.11700000
opls_145-394    C    0.08220012    0.90371005    0.28386007    -0.16850000
opls_145-395    C    0.88190009    0.94983990    0.22498014    -0.16330000
opls_145-396    C    0.91553987    0.97587993    0.22297006    -0.11300000
opls_700-397    C    0.94724992    0.97286007    0.25171005    0.06910000
opls_145-398    C    0.94512985    0.94249007    0.28201008    -0.12580000
opls_145-399    C    0.91172013    0.91582004    0.28349007    -0.16100000
opls_521-400    C    0.32535014    0.75909991    0.20526001    0.12350000
opls_142-401    C    0.19709013    0.76238008    0.08460006    0.07250000
opls_521-402    C    0.29426001    0.75984998    0.17164986    0.12350000
opls_142-403    C    0.24771005    0.69287993    0.40646013    0.07300000
opls_141-404    C    0.25191995    0.97973999    0.00468011    -0.02660000
opls_521-405    C    0.27753987    0.66420012    0.24446991    -0.05180000
opls_700-406    C    0.27215002    0.62171005    0.24452001    0.00640000
opls_523-407    C    0.23230003    0.60601986    0.24283990    -0.11790000
opls_522-408    C    0.19872013    0.63231011    0.24072013    -0.16050000
opls_521-409    C    0.15593003    0.77684998    0.24375985    0.04640000
opls_700-410    C    0.11419004    0.76894012    0.23827987    0.00610000
opls_523-411    C    0.10152001    0.72835014    0.23308005    -0.12420000
opls_522-412    C    0.13010999    0.69649985    0.23432997    -0.16280000
opls_145-413    C    0.25439994    0.92816987    0.12531989    0.19610000
opls_145-414    C    0.25583013    0.12064986    0.07987015    0.19800000
opls_145-415    C    0.77545005    0.04242988    0.11561014    -0.17220000
opls_145-416    C    0.77600000    0.02449985    0.07671005    -0.12540000
opls_700-417    C    0.74639994    0.03531011    0.04750015    0.06760000
opls_145-418    C    0.71623006    0.06391995    0.05791995    -0.11700000
opls_145-419    C    0.71613993    0.08220012    0.09628995    -0.16850000
opls_145-420    C    0.77501986    0.88190009    0.05016010    -0.16330000
opls_145-421    C    0.77702994    0.91553987    0.02412007    -0.11300000
opls_700-422    C    0.74828995    0.94724992    0.02713993    0.06910000
opls_145-423    C    0.71798992    0.94512985    0.05750993    -0.12590000
opls_145-424    C    0.71650993    0.91172013    0.08417996    -0.16110000
opls_521-425    C    0.32535014    0.24090009    0.79473999    0.12370000
opls_142-426    C    0.19709013    0.23761992    0.91539994    0.07250000
opls_521-427    C    0.29426001    0.24015002    0.82835014    0.12350000
opls_142-428    C    0.24771005    0.30712007    0.59353987    0.07290000
opls_141-429    C    0.25191995    0.02026001    0.99531989    -0.02660000
opls_521-430    C    0.27753987    0.33579988    0.75553009    -0.05180000
opls_700-431    C    0.27215002    0.37828995    0.75547999    0.00640000
opls_523-432    C    0.23230003    0.39398014    0.75716010    -0.11790000
opls_522-433    C    0.19872013    0.36768989    0.75927987    -0.16050000
opls_521-434    C    0.15593003    0.22315002    0.75624015    0.04640000
opls_700-435    C    0.11419004    0.23105988    0.76172013    0.00610000
opls_523-436    C    0.10152001    0.27164986    0.76691995    -0.12420000
opls_522-437    C    0.13010999    0.30350015    0.76567003    -0.16280000
opls_145-438    C    0.25439994    0.07183013    0.87468011    0.19610000
opls_145-439    C    0.25583013    0.87935014    0.92012985    0.19800000
opls_145-440    C    0.77545005    0.95757012    0.88438986    -0.17220000
opls_145-441    C    0.77600000    0.97549985    0.92328995    -0.12540000
opls_700-442    C    0.74639994    0.96468989    0.95250015    0.06760000
opls_145-443    C    0.71623006    0.93608005    0.94208005    -0.11700000
opls_145-444    C    0.71613993    0.91779988    0.90371005    -0.16850000
opls_145-445    C    0.77501986    0.11809991    0.94983990    -0.16330000
opls_145-446    C    0.77702994    0.08446013    0.97587993    -0.11310000
opls_700-447    C    0.74828995    0.05275008    0.97286007    0.06910000
opls_145-448    C    0.71798992    0.05487015    0.94249007    -0.12590000
opls_145-449    C    0.71650993    0.08827987    0.91582004    -0.16110000
opls_521-450    C    0.67464986    0.24090009    0.20526001    0.12350000
opls_142-451    C    0.80290987    0.23761992    0.08460006    0.07250000
opls_521-452    C    0.70573999    0.24015002    0.17164986    0.12350000
opls_142-453    C    0.75228995    0.30712007    0.40646013    0.07290000
opls_141-454    C    0.74808005    0.02026001    0.00468011    -0.02660000
opls_521-455    C    0.72246013    0.33579988    0.24446991    -0.05180000
opls_700-456    C    0.72784998    0.37828995    0.24452001    0.00640000
opls_523-457    C    0.76769997    0.39398014    0.24283990    -0.11790000
opls_522-458    C    0.80127987    0.36768989    0.24072013    -0.16050000
opls_521-459    C    0.84406997    0.22315002    0.24375985    0.04640000
opls_700-460    C    0.88580996    0.23105988    0.23827987    0.00610000
opls_523-461    C    0.89847999    0.27164986    0.23308005    -0.12420000
opls_522-462    C    0.86989001    0.30350015    0.23432997    -0.16280000
opls_145-463    C    0.74560006    0.07183013    0.12531989    0.19610000
opls_145-464    C    0.74416987    0.87935014    0.07987015    0.19800000
opls_145-465    C    0.22454995    0.95757012    0.11561014    -0.17220000
opls_145-466    C    0.22400000    0.97549985    0.07671005    -0.12540000
opls_700-467    C    0.25360006    0.96468989    0.04750015    0.06760000
opls_145-468    C    0.28376994    0.93608005    0.05791995    -0.11700000
opls_145-469    C    0.28386007    0.91779988    0.09628995    -0.16850000
opls_145-470    C    0.22498014    0.11809991    0.05016010    -0.16330000
opls_145-471    C    0.22297006    0.08446013    0.02412007    -0.11310000
opls_700-472    C    0.25171005    0.05275008    0.02713993    0.06910000
opls_145-473    C    0.28201008    0.05487015    0.05750993    -0.12590000
opls_145-474    C    0.28349007    0.08827987    0.08417996    -0.16110000
opls_521-475    C    0.67464986    0.75909991    0.79473999    0.12350000
opls_142-476    C    0.80290987    0.76238008    0.91539994    0.07250000
opls_521-477    C    0.70573999    0.75984998    0.82835014    0.12350000
opls_142-478    C    0.75228995    0.69287993    0.59353987    0.07290000
opls_141-479    C    0.74808005    0.97973999    0.99531989    -0.02660000
opls_521-480    C    0.72246013    0.66420012    0.75553009    -0.05180000
opls_700-481    C    0.72784998    0.62171005    0.75547999    0.00640000
opls_523-482    C    0.76769997    0.60601986    0.75716010    -0.11790000
opls_522-483    C    0.80127987    0.63231011    0.75927987    -0.16040000
opls_521-484    C    0.84406997    0.77684998    0.75624015    0.04640000
opls_700-485    C    0.88580996    0.76894012    0.76172013    0.00610000
opls_523-486    C    0.89847999    0.72835014    0.76691995    -0.12420000
opls_522-487    C    0.86989001    0.69649985    0.76567003    -0.16280000
opls_145-488    C    0.74560006    0.92816987    0.87468011    0.19620000
opls_145-489    C    0.74416987    0.12064986    0.92012985    0.19800000
opls_145-490    C    0.22454995    0.04242988    0.88438986    -0.17220000
opls_145-491    C    0.22400000    0.02449985    0.92328995    -0.12540000
opls_700-492    C    0.25360006    0.03531011    0.95250015    0.06770000
opls_145-493    C    0.28376994    0.06391995    0.94208005    -0.11700000
opls_145-494    C    0.28386007    0.08220012    0.90371005    -0.16840000
opls_145-495    C    0.22498014    0.88190009    0.94983990    -0.16330000
opls_145-496    C    0.22297006    0.91553987    0.97587993    -0.11310000
opls_700-497    C    0.25171005    0.94724992    0.97286007    0.06910000
opls_145-498    C    0.28201008    0.94512985    0.94249007    -0.12590000
opls_145-499    C    0.28349007    0.91172013    0.91582004    -0.16110000
opls_521-500    C    0.20526001    0.67464986    0.24090009    0.12350000
opls_142-501    C    0.08460006    0.80290987    0.23761992    0.07250000
opls_521-502    C    0.17164986    0.70573999    0.24015002    0.12350000
opls_142-503    C    0.40646013    0.75228995    0.30712007    0.07290000
opls_141-504    C    0.00468011    0.74808005    0.02026001    -0.02660000
opls_521-505    C    0.24446991    0.72246013    0.33579988    -0.05180000
opls_700-506    C    0.24452001    0.72784998    0.37828995    0.00640000
opls_523-507    C    0.24283990    0.76769997    0.39398014    -0.11790000
opls_522-508    C    0.24072013    0.80127987    0.36768989    -0.16050000
opls_521-509    C    0.24375985    0.84406997    0.22315002    0.04640000
opls_700-510    C    0.23827987    0.88580996    0.23105988    0.00610000
opls_523-511    C    0.23308005    0.89847999    0.27164986    -0.12420000
opls_522-512    C    0.23432997    0.86989001    0.30350015    -0.16280000
opls_145-513    C    0.12531989    0.74560006    0.07183013    0.19610000
opls_145-514    C    0.07987015    0.74416987    0.87935014    0.19810000
opls_145-515    C    0.11561014    0.22454995    0.95757012    -0.17220000
opls_145-516    C    0.07671005    0.22400000    0.97549985    -0.12540000
opls_700-517    C    0.04750015    0.25360006    0.96468989    0.06760000
opls_145-518    C    0.05791995    0.28376994    0.93608005    -0.11700000
opls_145-519    C    0.09628995    0.28386007    0.91779988    -0.16850000
opls_145-520    C    0.05016010    0.22498014    0.11809991    -0.16330000
opls_145-521    C    0.02412007    0.22297006    0.08446013    -0.11310000
opls_700-522    C    0.02713993    0.25171005    0.05275008    0.06910000
opls_145-523    C    0.05750993    0.28201008    0.05487015    -0.12590000
opls_145-524    C    0.08417996    0.28349007    0.08827987    -0.16110000
opls_521-525    C    0.79473999    0.67464986    0.75909991    0.12350000
opls_142-526    C    0.91539994    0.80290987    0.76238008    0.07250000
opls_521-527    C    0.82835014    0.70573999    0.75984998    0.12350000
opls_142-528    C    0.59353987    0.75228995    0.69287993    0.07290000
opls_141-529    C    0.99531989    0.74808005    0.97973999    -0.02660000
opls_521-530    C    0.75553009    0.72246013    0.66420012    -0.05180000
opls_700-531    C    0.75547999    0.72784998    0.62171005    0.00640000
opls_523-532    C    0.75716010    0.76769997    0.60601986    -0.11780000
opls_522-533    C    0.75927987    0.80127987    0.63231011    -0.16050000
opls_521-534    C    0.75624015    0.84406997    0.77684998    0.04640000
opls_700-535    C    0.76172013    0.88580996    0.76894012    0.00610000
opls_523-536    C    0.76691995    0.89847999    0.72835014    -0.12420000
opls_522-537    C    0.76567003    0.86989001    0.69649985    -0.16280000
opls_145-538    C    0.87468011    0.74560006    0.92816987    0.19610000
opls_145-539    C    0.92012985    0.74416987    0.12064986    0.19800000
opls_145-540    C    0.88438986    0.22454995    0.04242988    -0.17220000
opls_145-541    C    0.92328995    0.22400000    0.02449985    -0.12540000
opls_700-542    C    0.95250015    0.25360006    0.03531011    0.06760000
opls_145-543    C    0.94208005    0.28376994    0.06391995    -0.11700000
opls_145-544    C    0.90371005    0.28386007    0.08220012    -0.16850000
opls_145-545    C    0.94983990    0.22498014    0.88190009    -0.16330000
opls_145-546    C    0.97587993    0.22297006    0.91553987    -0.11310000
opls_700-547    C    0.97286007    0.25171005    0.94724992    0.06910000
opls_145-548    C    0.94249007    0.28201008    0.94512985    -0.12590000
opls_145-549    C    0.91582004    0.28349007    0.91172013    -0.16110000
opls_521-550    C    0.20526001    0.32535014    0.75909991    0.12350000
opls_142-551    C    0.08460006    0.19709013    0.76238008    0.07250000
opls_521-552    C    0.17164986    0.29426001    0.75984998    0.12350000
opls_142-553    C    0.40646013    0.24771005    0.69287993    0.07290000
opls_141-554    C    0.00468011    0.25191995    0.97973999    -0.02650000
opls_521-555    C    0.24446991    0.27753987    0.66420012    -0.05180000
opls_700-556    C    0.24452001    0.27215002    0.62171005    0.00650000
opls_523-557    C    0.24283990    0.23230003    0.60601986    -0.11790000
opls_522-558    C    0.24072013    0.19872013    0.63231011    -0.16050000
opls_521-559    C    0.24375985    0.15593003    0.77684998    0.04640000
opls_700-560    C    0.23827987    0.11419004    0.76894012    0.00610000
opls_523-561    C    0.23308005    0.10152001    0.72835014    -0.12420000
opls_522-562    C    0.23432997    0.13010999    0.69649985    -0.16280000
opls_145-563    C    0.12531989    0.25439994    0.92816987    0.19610000
opls_145-564    C    0.07987015    0.25583013    0.12064986    0.19800000
opls_145-565    C    0.11561014    0.77545005    0.04242988    -0.17220000
opls_145-566    C    0.07671005    0.77600000    0.02449985    -0.12540000
opls_700-567    C    0.04750015    0.74639994    0.03531011    0.06780000
opls_145-568    C    0.05791995    0.71623006    0.06391995    -0.11700000
opls_145-569    C    0.09628995    0.71613993    0.08220012    -0.16850000
opls_145-570    C    0.05016010    0.77501986    0.88190009    -0.16330000
opls_145-571    C    0.02412007    0.77702994    0.91553987    -0.11310000
opls_700-572    C    0.02713993    0.74828995    0.94724992    0.06910000
opls_145-573    C    0.05750993    0.71798992    0.94512985    -0.12580000
opls_145-574    C    0.08417996    0.71650993    0.91172013    -0.16110000
opls_521-575    C    0.79473999    0.32535014    0.24090009    0.12350000
opls_142-576    C    0.91539994    0.19709013    0.23761992    0.07260000
opls_521-577    C    0.82835014    0.29426001    0.24015002    0.12350000
opls_142-578    C    0.59353987    0.24771005    0.30712007    0.07290000
opls_141-579    C    0.99531989    0.25191995    0.02026001    -0.02660000
opls_521-580    C    0.75553009    0.27753987    0.33579988    -0.05180000
opls_700-581    C    0.75547999    0.27215002    0.37828995    0.00640000
opls_523-582    C    0.75716010    0.23230003    0.39398014    -0.11790000
opls_522-583    C    0.75927987    0.19872013    0.36768989    -0.16050000
opls_521-584    C    0.75624015    0.15593003    0.22315002    0.04640000
opls_700-585    C    0.76172013    0.11419004    0.23105988    0.00610000
opls_523-586    C    0.76691995    0.10152001    0.27164986    -0.12410000
opls_522-587    C    0.76567003    0.13010999    0.30350015    -0.16270000
opls_145-588    C    0.87468011    0.25439994    0.07183013    0.19630000
opls_145-589    C    0.92012985    0.25583013    0.87935014    0.19800000
opls_145-590    C    0.88438986    0.77545005    0.95757012    -0.17220000
opls_145-591    C    0.92328995    0.77600000    0.97549985    -0.12540000
opls_700-592    C    0.95250015    0.74639994    0.96468989    0.06760000
opls_145-593    C    0.94208005    0.71623006    0.93608005    -0.11700000
opls_145-594    C    0.90371005    0.71613993    0.91779988    -0.16850000
opls_145-595    C    0.94983990    0.77501986    0.11809991    -0.16330000
opls_145-596    C    0.97587993    0.77702994    0.08446013    -0.11310000
opls_700-597    C    0.97286007    0.74828995    0.05275008    0.06910000
opls_145-598    C    0.94249007    0.71798992    0.05487015    -0.12580000
opls_145-599    C    0.91582004    0.71650993    0.08827987    -0.16110000
opls_750-600    N    0.40493003    0.66232997    0.75349985    -0.33840000
opls_750-601    N    0.10579988    0.74042010    0.84419004    -0.33820000
opls_239-602    N    0.25687993    0.74434005    0.81093003    -0.31080000
opls_239-603    N    0.31697006    0.75443996    0.74415002    -0.31070000
opls_750-604    N    0.59506997    0.33767003    0.75349985    -0.33840000
opls_750-605    N    0.89420012    0.25957990    0.84419004    -0.33810000
opls_239-606    N    0.74312007    0.25565995    0.81093003    -0.31080000
opls_239-607    N    0.68302994    0.24556004    0.74415002    -0.31070000
opls_750-608    N    0.59506997    0.66232997    0.24649985    -0.33830000
opls_750-609    N    0.89420012    0.74042010    0.15580996    -0.33820000
opls_239-610    N    0.74312007    0.74434005    0.18906997    -0.31080000
opls_239-611    N    0.68302994    0.75443996    0.25584998    -0.31080000
opls_750-612    N    0.40493003    0.33767003    0.24649985    -0.33840000
opls_750-613    N    0.10579988    0.25957990    0.15580996    -0.33820000
opls_239-614    N    0.25687993    0.25565995    0.18906997    -0.31080000
opls_239-615    N    0.31697006    0.24556004    0.25584998    -0.31080000
opls_750-616    N    0.75349985    0.40493003    0.66232997    -0.33840000
opls_750-617    N    0.84419004    0.10579988    0.74042010    -0.33820000
opls_239-618    N    0.81093003    0.25687993    0.74434005    -0.31080000
opls_239-619    N    0.74415002    0.31697006    0.75443996    -0.31080000
opls_750-620    N    0.75349985    0.59506997    0.33767003    -0.33840000
opls_750-621    N    0.84419004    0.89420012    0.25957990    -0.33820000
opls_239-622    N    0.81093003    0.74312007    0.25565995    -0.31080000
opls_239-623    N    0.74415002    0.68302994    0.24556004    -0.31070000
opls_750-624    N    0.24649985    0.59506997    0.66232997    -0.33840000
opls_750-625    N    0.15580996    0.89420012    0.74042010    -0.33820000
opls_239-626    N    0.18906997    0.74312007    0.74434005    -0.31080000
opls_239-627    N    0.25584998    0.68302994    0.75443996    -0.31080000
opls_750-628    N    0.24649985    0.40493003    0.33767003    -0.33840000
opls_750-629    N    0.15580996    0.10579988    0.25957990    -0.33820000
opls_239-630    N    0.18906997    0.25687993    0.25565995    -0.31080000
opls_239-631    N    0.25584998    0.31697006    0.24556004    -0.31080000
opls_750-632    N    0.66232997    0.24649985    0.59506997    -0.33840000
opls_750-633    N    0.74042010    0.15580996    0.89420012    -0.33800000
opls_239-634    N    0.74434005    0.18906997    0.74312007    -0.31080000
opls_239-635    N    0.75443996    0.25584998    0.68302994    -0.31080000
opls_750-636    N    0.33767003    0.24649985    0.40493003    -0.33830000
opls_750-637    N    0.25957990    0.15580996    0.10579988    -0.33820000
opls_239-638    N    0.25565995    0.18906997    0.25687993    -0.31080000
opls_239-639    N    0.24556004    0.25584998    0.31697006    -0.31080000
opls_750-640    N    0.66232997    0.75349985    0.40493003    -0.33840000
opls_750-641    N    0.74042010    0.84419004    0.10579988    -0.33820000
opls_239-642    N    0.74434005    0.81093003    0.25687993    -0.31080000
opls_239-643    N    0.75443996    0.74415002    0.31697006    -0.31070000
opls_750-644    N    0.33767003    0.75349985    0.59506997    -0.33840000
opls_750-645    N    0.25957990    0.84419004    0.89420012    -0.33810000
opls_239-646    N    0.25565995    0.81093003    0.74312007    -0.31080000
opls_239-647    N    0.24556004    0.74415002    0.68302994    -0.31080000
opls_750-648    N    0.90493003    0.16232997    0.25350015    -0.33840000
opls_750-649    N    0.60579988    0.24042010    0.34419004    -0.33820000
opls_239-650    N    0.75687993    0.24434005    0.31093003    -0.31080000
opls_239-651    N    0.81697006    0.25443996    0.24415002    -0.31080000
opls_750-652    N    0.09506997    0.83767003    0.25350015    -0.33840000
opls_750-653    N    0.39420012    0.75957990    0.34419004    -0.33810000
opls_239-654    N    0.24312007    0.75565995    0.31093003    -0.31060000
opls_239-655    N    0.18302994    0.74556004    0.24415002    -0.31060000
opls_750-656    N    0.09506997    0.16232997    0.74650015    -0.33830000
opls_750-657    N    0.39420012    0.24042010    0.65580996    -0.33800000
opls_239-658    N    0.24312007    0.24434005    0.68906997    -0.31070000
opls_239-659    N    0.18302994    0.25443996    0.75584998    -0.31080000
opls_750-660    N    0.90493003    0.83767003    0.74650015    -0.33830000
opls_750-661    N    0.60579988    0.75957990    0.65580996    -0.33820000
opls_239-662    N    0.75687993    0.75565995    0.68906997    -0.31070000
opls_239-663    N    0.81697006    0.74556004    0.75584998    -0.31080000
opls_750-664    N    0.25350015    0.90493003    0.16232997    -0.33830000
opls_750-665    N    0.34419004    0.60579988    0.24042010    -0.33810000
opls_239-666    N    0.31093003    0.75687993    0.24434005    -0.31080000
opls_239-667    N    0.24415002    0.81697006    0.25443996    -0.31080000
opls_750-668    N    0.25350015    0.09506997    0.83767003    -0.33840000
opls_750-669    N    0.34419004    0.39420012    0.75957990    -0.33820000
opls_239-670    N    0.31093003    0.24312007    0.75565995    -0.31070000
opls_239-671    N    0.24415002    0.18302994    0.74556004    -0.31060000
opls_750-672    N    0.74650015    0.09506997    0.16232997    -0.33840000
opls_750-673    N    0.65580996    0.39420012    0.24042010    -0.33820000
opls_239-674    N    0.68906997    0.24312007    0.24434005    -0.31070000
opls_239-675    N    0.75584998    0.18302994    0.25443996    -0.31080000
opls_750-676    N    0.74650015    0.90493003    0.83767003    -0.33830000
opls_750-677    N    0.65580996    0.60579988    0.75957990    -0.33800000
opls_239-678    N    0.68906997    0.75687993    0.75565995    -0.31080000
opls_239-679    N    0.75584998    0.81697006    0.74556004    -0.31080000
opls_750-680    N    0.16232997    0.74650015    0.09506997    -0.33840000
opls_750-681    N    0.24042010    0.65580996    0.39420012    -0.33820000
opls_239-682    N    0.24434005    0.68906997    0.24312007    -0.31080000
opls_239-683    N    0.25443996    0.75584998    0.18302994    -0.31080000
opls_750-684    N    0.83767003    0.74650015    0.90493003    -0.33840000
opls_750-685    N    0.75957990    0.65580996    0.60579988    -0.33820000
opls_239-686    N    0.75565995    0.68906997    0.75687993    -0.31080000
opls_239-687    N    0.74556004    0.75584998    0.81697006    -0.31070000
opls_750-688    N    0.16232997    0.25350015    0.90493003    -0.33840000
opls_750-689    N    0.24042010    0.34419004    0.60579988    -0.33800000
opls_239-690    N    0.24434005    0.31093003    0.75687993    -0.31080000
opls_239-691    N    0.25443996    0.24415002    0.81697006    -0.31080000
opls_750-692    N    0.83767003    0.25350015    0.09506997    -0.33830000
opls_750-693    N    0.75957990    0.34419004    0.39420012    -0.33800000
opls_239-694    N    0.75565995    0.31093003    0.24312007    -0.31070000
opls_239-695    N    0.74556004    0.24415002    0.18302994    -0.31080000
opls_144-696    H    0.27500000    0.55435014    0.70165995    0.12900000
opls_144-697    H    0.19882004    0.93823006    0.75497006    0.11080000
opls_524-698    H    0.17724992    0.74660006    0.80775985    0.12070000
opls_526-699    H    0.07332997    0.74316010    0.72716987    0.11750000
opls_525-700    H    0.11937000    0.73968011    0.66839994    0.12780000
opls_524-701    H    0.30783013    0.74665995    0.66680996    0.12050000
opls_526-702    H    0.22131011    0.72842010    0.56953009    0.12080000
opls_525-703    H    0.16549985    0.73020990    0.61958998    0.12470000
opls_146-704    H    0.53475008    0.63716010    0.29930003    0.12530000
opls_146-705    H    0.50324992    0.56898992    0.30013993    0.12240000
opls_146-706    H    0.57293003    0.53583990    0.19327987    0.11740000
opls_146-707    H    0.60521998    0.60323006    0.19341002    0.12080000
opls_146-708    H    0.35783013    0.54698014    0.29746991    0.12180000
opls_146-709    H    0.41647999    0.50090009    0.30058998    0.11750000
opls_146-710    H    0.46867003    0.55984998    0.19487993    0.12230000
opls_146-711    H    0.41024015    0.60716010    0.19275985    0.12050000
opls_144-712    H    0.72500000    0.44564986    0.70165995    0.12900000
opls_144-713    H    0.80117996    0.06176994    0.75497006    0.11070000
opls_524-714    H    0.82275008    0.25339994    0.80775985    0.12070000
opls_526-715    H    0.92667003    0.25683990    0.72716987    0.11750000
opls_525-716    H    0.88063000    0.26031989    0.66839994    0.12780000
opls_524-717    H    0.69216987    0.25334005    0.66680996    0.12050000
opls_526-718    H    0.77868989    0.27157990    0.56953009    0.12090000
opls_525-719    H    0.83450015    0.26979010    0.61958998    0.12470000
opls_146-720    H    0.46524992    0.36283990    0.29930003    0.12530000
opls_146-721    H    0.49675008    0.43101008    0.30013993    0.12230000
opls_146-722    H    0.42706997    0.46416010    0.19327987    0.11730000
opls_146-723    H    0.39478002    0.39676994    0.19341002    0.12090000
opls_146-724    H    0.64216987    0.45301986    0.29746991    0.12180000
opls_146-725    H    0.58352001    0.49909991    0.30058998    0.11750000
opls_146-726    H    0.53132997    0.44015002    0.19487993    0.12220000
opls_146-727    H    0.58975985    0.39283990    0.19275985    0.12050000
opls_144-728    H    0.72500000    0.55435014    0.29834005    0.12900000
opls_144-729    H    0.80117996    0.93823006    0.24502994    0.11070000
opls_524-730    H    0.82275008    0.74660006    0.19224015    0.12070000
opls_526-731    H    0.92667003    0.74316010    0.27283013    0.11750000
opls_525-732    H    0.88063000    0.73968011    0.33160006    0.12780000
opls_524-733    H    0.69216987    0.74665995    0.33319004    0.12050000
opls_526-734    H    0.77868989    0.72842010    0.43046991    0.12080000
opls_525-735    H    0.83450015    0.73020990    0.38041002    0.12470000
opls_146-736    H    0.46524992    0.63716010    0.70069997    0.12550000
opls_146-737    H    0.49675008    0.56898992    0.69986007    0.12230000
opls_146-738    H    0.42706997    0.53583990    0.80672013    0.11730000
opls_146-739    H    0.39478002    0.60323006    0.80658998    0.12080000
opls_146-740    H    0.64216987    0.54698014    0.70253009    0.12180000
opls_146-741    H    0.58352001    0.50090009    0.69941002    0.11750000
opls_146-742    H    0.53132997    0.55984998    0.80512007    0.12220000
opls_146-743    H    0.58975985    0.60716010    0.80724015    0.12060000
opls_144-744    H    0.27500000    0.44564986    0.29834005    0.12900000
opls_144-745    H    0.19882004    0.06176994    0.24502994    0.11080000
opls_524-746    H    0.17724992    0.25339994    0.19224015    0.12070000
opls_526-747    H    0.07332997    0.25683990    0.27283013    0.11750000
opls_525-748    H    0.11937000    0.26031989    0.33160006    0.12780000
opls_524-749    H    0.30783013    0.25334005    0.33319004    0.12050000
opls_526-750    H    0.22131011    0.27157990    0.43046991    0.12080000
opls_525-751    H    0.16549985    0.26979010    0.38041002    0.12470000
opls_146-752    H    0.53475008    0.36283990    0.70069997    0.12530000
opls_146-753    H    0.50324992    0.43101008    0.69986007    0.12230000
opls_146-754    H    0.57293003    0.46416010    0.80672013    0.11730000
opls_146-755    H    0.60521998    0.39676994    0.80658998    0.12080000
opls_146-756    H    0.35783013    0.45301986    0.70253009    0.12180000
opls_146-757    H    0.41647999    0.49909991    0.69941002    0.11750000
opls_146-758    H    0.46867003    0.44015002    0.80512007    0.12220000
opls_146-759    H    0.41024015    0.39283990    0.80724015    0.12050000
opls_144-760    H    0.70165995    0.27500000    0.55435014    0.12900000
opls_144-761    H    0.75497006    0.19882004    0.93823006    0.11070000
opls_524-762    H    0.80775985    0.17724992    0.74660006    0.12070000
opls_526-763    H    0.72716987    0.07332997    0.74316010    0.11750000
opls_525-764    H    0.66839994    0.11937000    0.73968011    0.12790000
opls_524-765    H    0.66680996    0.30783013    0.74665995    0.12050000
opls_526-766    H    0.56953009    0.22131011    0.72842010    0.12090000
opls_525-767    H    0.61958998    0.16549985    0.73020990    0.12470000
opls_146-768    H    0.29930003    0.53475008    0.63716010    0.12530000
opls_146-769    H    0.30013993    0.50324992    0.56898992    0.12230000
opls_146-770    H    0.19327987    0.57293003    0.53583990    0.11730000
opls_146-771    H    0.19341002    0.60521998    0.60323006    0.12080000
opls_146-772    H    0.29746991    0.35783013    0.54698014    0.12180000
opls_146-773    H    0.30058998    0.41647999    0.50090009    0.11750000
opls_146-774    H    0.19487993    0.46867003    0.55984998    0.12220000
opls_146-775    H    0.19275985    0.41024015    0.60716010    0.12050000
opls_144-776    H    0.70165995    0.72500000    0.44564986    0.12910000
opls_144-777    H    0.75497006    0.80117996    0.06176994    0.11070000
opls_524-778    H    0.80775985    0.82275008    0.25339994    0.12070000
opls_526-779    H    0.72716987    0.92667003    0.25683990    0.11750000
opls_525-780    H    0.66839994    0.88063000    0.26031989    0.12780000
opls_524-781    H    0.66680996    0.69216987    0.25334005    0.12050000
opls_526-782    H    0.56953009    0.77868989    0.27157990    0.12080000
opls_525-783    H    0.61958998    0.83450015    0.26979010    0.12470000
opls_146-784    H    0.29930003    0.46524992    0.36283990    0.12530000
opls_146-785    H    0.30013993    0.49675008    0.43101008    0.12230000
opls_146-786    H    0.19327987    0.42706997    0.46416010    0.11730000
opls_146-787    H    0.19341002    0.39478002    0.39676994    0.12080000
opls_146-788    H    0.29746991    0.64216987    0.45301986    0.12180000
opls_146-789    H    0.30058998    0.58352001    0.49909991    0.11760000
opls_146-790    H    0.19487993    0.53132997    0.44015002    0.12220000
opls_146-791    H    0.19275985    0.58975985    0.39283990    0.12050000
opls_144-792    H    0.29834005    0.72500000    0.55435014    0.12900000
opls_144-793    H    0.24502994    0.80117996    0.93823006    0.11070000
opls_524-794    H    0.19224015    0.82275008    0.74660006    0.12080000
opls_526-795    H    0.27283013    0.92667003    0.74316010    0.11750000
opls_525-796    H    0.33160006    0.88063000    0.73968011    0.12780000
opls_524-797    H    0.33319004    0.69216987    0.74665995    0.12050000
opls_526-798    H    0.43046991    0.77868989    0.72842010    0.12080000
opls_525-799    H    0.38041002    0.83450015    0.73020990    0.12470000
opls_146-800    H    0.70069997    0.46524992    0.63716010    0.12530000
opls_146-801    H    0.69986007    0.49675008    0.56898992    0.12230000
opls_146-802    H    0.80672013    0.42706997    0.53583990    0.11730000
opls_146-803    H    0.80658998    0.39478002    0.60323006    0.12080000
opls_146-804    H    0.70253009    0.64216987    0.54698014    0.12180000
opls_146-805    H    0.69941002    0.58352001    0.50090009    0.11750000
opls_146-806    H    0.80512007    0.53132997    0.55984998    0.12220000
opls_146-807    H    0.80724015    0.58975985    0.60716010    0.12050000
opls_144-808    H    0.29834005    0.27500000    0.44564986    0.12900000
opls_144-809    H    0.24502994    0.19882004    0.06176994    0.11070000
opls_524-810    H    0.19224015    0.17724992    0.25339994    0.12070000
opls_526-811    H    0.27283013    0.07332997    0.25683990    0.11750000
opls_525-812    H    0.33160006    0.11937000    0.26031989    0.12780000
opls_524-813    H    0.33319004    0.30783013    0.25334005    0.12050000
opls_526-814    H    0.43046991    0.22131011    0.27157990    0.12080000
opls_525-815    H    0.38041002    0.16549985    0.26979010    0.12470000
opls_146-816    H    0.70069997    0.53475008    0.36283990    0.12530000
opls_146-817    H    0.69986007    0.50324992    0.43101008    0.12230000
opls_146-818    H    0.80672013    0.57293003    0.46416010    0.11730000
opls_146-819    H    0.80658998    0.60521998    0.39676994    0.12080000
opls_146-820    H    0.70253009    0.35783013    0.45301986    0.12180000
opls_146-821    H    0.69941002    0.41647999    0.49909991    0.11750000
opls_146-822    H    0.80512007    0.46867003    0.44015002    0.12220000
opls_146-823    H    0.80724015    0.41024015    0.39283990    0.12050000
opls_144-824    H    0.55435014    0.29834005    0.72500000    0.12900000
opls_144-825    H    0.93823006    0.24502994    0.80117996    0.11070000
opls_524-826    H    0.74660006    0.19224015    0.82275008    0.12070000
opls_526-827    H    0.74316010    0.27283013    0.92667003    0.11750000
opls_525-828    H    0.73968011    0.33160006    0.88063000    0.12780000
opls_524-829    H    0.74665995    0.33319004    0.69216987    0.12050000
opls_526-830    H    0.72842010    0.43046991    0.77868989    0.12080000
opls_525-831    H    0.73020990    0.38041002    0.83450015    0.12470000
opls_146-832    H    0.63716010    0.70069997    0.46524992    0.12530000
opls_146-833    H    0.56898992    0.69986007    0.49675008    0.12230000
opls_146-834    H    0.53583990    0.80672013    0.42706997    0.11730000
opls_146-835    H    0.60323006    0.80658998    0.39478002    0.12080000
opls_146-836    H    0.54698014    0.70253009    0.64216987    0.12190000
opls_146-837    H    0.50090009    0.69941002    0.58352001    0.11750000
opls_146-838    H    0.55984998    0.80512007    0.53132997    0.12220000
opls_146-839    H    0.60716010    0.80724015    0.58975985    0.12050000
opls_144-840    H    0.44564986    0.29834005    0.27500000    0.12900000
opls_144-841    H    0.06176994    0.24502994    0.19882004    0.11080000
opls_524-842    H    0.25339994    0.19224015    0.17724992    0.12070000
opls_526-843    H    0.25683990    0.27283013    0.07332997    0.11750000
opls_525-844    H    0.26031989    0.33160006    0.11937000    0.12790000
opls_524-845    H    0.25334005    0.33319004    0.30783013    0.12050000
opls_526-846    H    0.27157990    0.43046991    0.22131011    0.12080000
opls_525-847    H    0.26979010    0.38041002    0.16549985    0.12470000
opls_146-848    H    0.36283990    0.70069997    0.53475008    0.12530000
opls_146-849    H    0.43101008    0.69986007    0.50324992    0.12230000
opls_146-850    H    0.46416010    0.80672013    0.57293003    0.11730000
opls_146-851    H    0.39676994    0.80658998    0.60521998    0.12080000
opls_146-852    H    0.45301986    0.70253009    0.35783013    0.12180000
opls_146-853    H    0.49909991    0.69941002    0.41647999    0.11750000
opls_146-854    H    0.44015002    0.80512007    0.46867003    0.12220000
opls_146-855    H    0.39283990    0.80724015    0.41024015    0.12050000
opls_144-856    H    0.55435014    0.70165995    0.27500000    0.12900000
opls_144-857    H    0.93823006    0.75497006    0.19882004    0.11070000
opls_524-858    H    0.74660006    0.80775985    0.17724992    0.12080000
opls_526-859    H    0.74316010    0.72716987    0.07332997    0.11750000
opls_525-860    H    0.73968011    0.66839994    0.11937000    0.12780000
opls_524-861    H    0.74665995    0.66680996    0.30783013    0.12050000
opls_526-862    H    0.72842010    0.56953009    0.22131011    0.12080000
opls_525-863    H    0.73020990    0.61958998    0.16549985    0.12470000
opls_146-864    H    0.63716010    0.29930003    0.53475008    0.12530000
opls_146-865    H    0.56898992    0.30013993    0.50324992    0.12230000
opls_146-866    H    0.53583990    0.19327987    0.57293003    0.11730000
opls_146-867    H    0.60323006    0.19341002    0.60521998    0.12090000
opls_146-868    H    0.54698014    0.29746991    0.35783013    0.12180000
opls_146-869    H    0.50090009    0.30058998    0.41647999    0.11750000
opls_146-870    H    0.55984998    0.19487993    0.46867003    0.12220000
opls_146-871    H    0.60716010    0.19275985    0.41024015    0.12050000
opls_144-872    H    0.44564986    0.70165995    0.72500000    0.12900000
opls_144-873    H    0.06176994    0.75497006    0.80117996    0.11070000
opls_524-874    H    0.25339994    0.80775985    0.82275008    0.12070000
opls_526-875    H    0.25683990    0.72716987    0.92667003    0.11750000
opls_525-876    H    0.26031989    0.66839994    0.88063000    0.12780000
opls_524-877    H    0.25334005    0.66680996    0.69216987    0.12050000
opls_526-878    H    0.27157990    0.56953009    0.77868989    0.12080000
opls_525-879    H    0.26979010    0.61958998    0.83450015    0.12470000
opls_146-880    H    0.36283990    0.29930003    0.46524992    0.12530000
opls_146-881    H    0.43101008    0.30013993    0.49675008    0.12230000
opls_146-882    H    0.46416010    0.19327987    0.42706997    0.11730000
opls_146-883    H    0.39676994    0.19341002    0.39478002    0.12080000
opls_146-884    H    0.45301986    0.29746991    0.64216987    0.12180000
opls_146-885    H    0.49909991    0.30058998    0.58352001    0.11760000
opls_146-886    H    0.44015002    0.19487993    0.53132997    0.12220000
opls_146-887    H    0.39283990    0.19275985    0.58975985    0.12050000
opls_144-888    H    0.77500000    0.05435014    0.20165995    0.12900000
opls_144-889    H    0.69882004    0.43823006    0.25497006    0.11070000
opls_524-890    H    0.67724992    0.24660006    0.30775985    0.12070000
opls_526-891    H    0.57332997    0.24316010    0.22716987    0.11750000
opls_525-892    H    0.61937000    0.23968011    0.16839994    0.12780000
opls_524-893    H    0.80783013    0.24665995    0.16680996    0.12050000
opls_526-894    H    0.72131011    0.22842010    0.06953009    0.12090000
opls_525-895    H    0.66550015    0.23020990    0.11958998    0.12470000
opls_146-896    H    0.03475008    0.13716010    0.79930003    0.12530000
opls_146-897    H    0.00324992    0.06898992    0.80013993    0.12230000
opls_146-898    H    0.07293003    0.03583990    0.69327987    0.11730000
opls_146-899    H    0.10521998    0.10323006    0.69341002    0.12080000
opls_146-900    H    0.85783013    0.04698014    0.79746991    0.12180000
opls_146-901    H    0.91647999    0.00090009    0.80058998    0.11750000
opls_146-902    H    0.96867003    0.05984998    0.69487993    0.12220000
opls_146-903    H    0.91024015    0.10716010    0.69275985    0.12060000
opls_144-904    H    0.22500000    0.94564986    0.20165995    0.12900000
opls_144-905    H    0.30117996    0.56176994    0.25497006    0.11070000
opls_524-906    H    0.32275008    0.75339994    0.30775985    0.12070000
opls_526-907    H    0.42667003    0.75683990    0.22716987    0.11750000
opls_525-908    H    0.38063000    0.76031989    0.16839994    0.12790000
opls_524-909    H    0.19216987    0.75334005    0.16680996    0.12050000
opls_526-910    H    0.27868989    0.77157990    0.06953009    0.12080000
opls_525-911    H    0.33450015    0.76979010    0.11958998    0.12470000
opls_146-912    H    0.96524992    0.86283990    0.79930003    0.12530000
opls_146-913    H    0.99675008    0.93101008    0.80013993    0.12230000
opls_146-914    H    0.92706997    0.96416010    0.69327987    0.11740000
opls_146-915    H    0.89478002    0.89676994    0.69341002    0.12080000
opls_146-916    H    0.14216987    0.95301986    0.79746991    0.12180000
opls_146-917    H    0.08352001    0.99909991    0.80058998    0.11750000
opls_146-918    H    0.03132997    0.94015002    0.69487993    0.12220000
opls_146-919    H    0.08975985    0.89283990    0.69275985    0.12050000
opls_144-920    H    0.22500000    0.05435014    0.79834005    0.12900000
opls_144-921    H    0.30117996    0.43823006    0.74502994    0.11070000
opls_524-922    H    0.32275008    0.24660006    0.69224015    0.12070000
opls_526-923    H    0.42667003    0.24316010    0.77283013    0.11750000
opls_525-924    H    0.38063000    0.23968011    0.83160006    0.12780000
opls_524-925    H    0.19216987    0.24665995    0.83319004    0.12060000
opls_526-926    H    0.27868989    0.22842010    0.93046991    0.12080000
opls_525-927    H    0.33450015    0.23020990    0.88041002    0.12470000
opls_146-928    H    0.96524992    0.13716010    0.20069997    0.12530000
opls_146-929    H    0.99675008    0.06898992    0.19986007    0.12230000
opls_146-930    H    0.92706997    0.03583990    0.30672013    0.11730000
opls_146-931    H    0.89478002    0.10323006    0.30658998    0.12080000
opls_146-932    H    0.14216987    0.04698014    0.20253009    0.12180000
opls_146-933    H    0.08352001    0.00090009    0.19941002    0.11750000
opls_146-934    H    0.03132997    0.05984998    0.30512007    0.12220000
opls_146-935    H    0.08975985    0.10716010    0.30724015    0.12050000
opls_144-936    H    0.77500000    0.94564986    0.79834005    0.12900000
opls_144-937    H    0.69882004    0.56176994    0.74502994    0.11070000
opls_524-938    H    0.67724992    0.75339994    0.69224015    0.12070000
opls_526-939    H    0.57332997    0.75683990    0.77283013    0.11750000
opls_525-940    H    0.61937000    0.76031989    0.83160006    0.12780000
opls_524-941    H    0.80783013    0.75334005    0.83319004    0.12050000
opls_526-942    H    0.72131011    0.77157990    0.93046991    0.12080000
opls_525-943    H    0.66550015    0.76979010    0.88041002    0.12470000
opls_146-944    H    0.03475008    0.86283990    0.20069997    0.12530000
opls_146-945    H    0.00324992    0.93101008    0.19986007    0.12230000
opls_146-946    H    0.07293003    0.96416010    0.30672013    0.11730000
opls_146-947    H    0.10521998    0.89676994    0.30658998    0.12080000
opls_146-948    H    0.85783013    0.95301986    0.20253009    0.12180000
opls_146-949    H    0.91647999    0.99909991    0.19941002    0.11750000
opls_146-950    H    0.96867003    0.94015002    0.30512007    0.12220000
opls_146-951    H    0.91024015    0.89283990    0.30724015    0.12050000
opls_144-952    H    0.20165995    0.77500000    0.05435014    0.12900000
opls_144-953    H    0.25497006    0.69882004    0.43823006    0.11070000
opls_524-954    H    0.30775985    0.67724992    0.24660006    0.12080000
opls_526-955    H    0.22716987    0.57332997    0.24316010    0.11750000
opls_525-956    H    0.16839994    0.61937000    0.23968011    0.12780000
opls_524-957    H    0.16680996    0.80783013    0.24665995    0.12050000
opls_526-958    H    0.06953009    0.72131011    0.22842010    0.12080000
opls_525-959    H    0.11958998    0.66550015    0.23020990    0.12470000
opls_146-960    H    0.79930003    0.03475008    0.13716010    0.12530000
opls_146-961    H    0.80013993    0.00324992    0.06898992    0.12230000
opls_146-962    H    0.69327987    0.07293003    0.03583990    0.11730000
opls_146-963    H    0.69341002    0.10521998    0.10323006    0.12080000
opls_146-964    H    0.79746991    0.85783013    0.04698014    0.12180000
opls_146-965    H    0.80058998    0.91647999    0.00090009    0.11750000
opls_146-966    H    0.69487993    0.96867003    0.05984998    0.12220000
opls_146-967    H    0.69275985    0.91024015    0.10716010    0.12060000
opls_144-968    H    0.20165995    0.22500000    0.94564986    0.12910000
opls_144-969    H    0.25497006    0.30117996    0.56176994    0.11070000
opls_524-970    H    0.30775985    0.32275008    0.75339994    0.12070000
opls_526-971    H    0.22716987    0.42667003    0.75683990    0.11750000
opls_525-972    H    0.16839994    0.38063000    0.76031989    0.12780000
opls_524-973    H    0.16680996    0.19216987    0.75334005    0.12050000
opls_526-974    H    0.06953009    0.27868989    0.77157990    0.12080000
opls_525-975    H    0.11958998    0.33450015    0.76979010    0.12470000
opls_146-976    H    0.79930003    0.96524992    0.86283990    0.12530000
opls_146-977    H    0.80013993    0.99675008    0.93101008    0.12230000
opls_146-978    H    0.69327987    0.92706997    0.96416010    0.11730000
opls_146-979    H    0.69341002    0.89478002    0.89676994    0.12080000
opls_146-980    H    0.79746991    0.14216987    0.95301986    0.12200000
opls_146-981    H    0.80058998    0.08352001    0.99909991    0.11750000
opls_146-982    H    0.69487993    0.03132997    0.94015002    0.12220000
opls_146-983    H    0.69275985    0.08975985    0.89283990    0.12050000
opls_144-984    H    0.79834005    0.22500000    0.05435014    0.12900000
opls_144-985    H    0.74502994    0.30117996    0.43823006    0.11070000
opls_524-986    H    0.69224015    0.32275008    0.24660006    0.12080000
opls_526-987    H    0.77283013    0.42667003    0.24316010    0.11750000
opls_525-988    H    0.83160006    0.38063000    0.23968011    0.12780000
opls_524-989    H    0.83319004    0.19216987    0.24665995    0.12050000
opls_526-990    H    0.93046991    0.27868989    0.22842010    0.12080000
opls_525-991    H    0.88041002    0.33450015    0.23020990    0.12470000
opls_146-992    H    0.20069997    0.96524992    0.13716010    0.12530000
opls_146-993    H    0.19986007    0.99675008    0.06898992    0.12230000
opls_146-994    H    0.30672013    0.92706997    0.03583990    0.11730000
opls_146-995    H    0.30658998    0.89478002    0.10323006    0.12080000
opls_146-996    H    0.20253009    0.14216987    0.04698014    0.12180000
opls_146-997    H    0.19941002    0.08352001    0.00090009    0.11750000
opls_146-998    H    0.30512007    0.03132997    0.05984998    0.12220000
opls_146-999    H    0.30724015    0.08975985    0.10716010    0.12050000
opls_144-1000    H    0.79834005    0.77500000    0.94564986    0.12900000
opls_144-1001    H    0.74502994    0.69882004    0.56176994    0.11070000
opls_524-1002    H    0.69224015    0.67724992    0.75339994    0.12070000
opls_526-1003    H    0.77283013    0.57332997    0.75683990    0.11750000
opls_525-1004    H    0.83160006    0.61937000    0.76031989    0.12780000
opls_524-1005    H    0.83319004    0.80783013    0.75334005    0.12050000
opls_526-1006    H    0.93046991    0.72131011    0.77157990    0.12080000
opls_525-1007    H    0.88041002    0.66550015    0.76979010    0.12470000
opls_146-1008    H    0.20069997    0.03475008    0.86283990    0.12530000
opls_146-1009    H    0.19986007    0.00324992    0.93101008    0.12230000
opls_146-1010    H    0.30672013    0.07293003    0.96416010    0.11730000
opls_146-1011    H    0.30658998    0.10521998    0.89676994    0.12080000
opls_146-1012    H    0.20253009    0.85783013    0.95301986    0.12180000
opls_146-1013    H    0.19941002    0.91647999    0.99909991    0.11750000
opls_146-1014    H    0.30512007    0.96867003    0.94015002    0.12220000
opls_146-1015    H    0.30724015    0.91024015    0.89283990    0.12050000
opls_144-1016    H    0.05435014    0.79834005    0.22500000    0.12900000
opls_144-1017    H    0.43823006    0.74502994    0.30117996    0.11070000
opls_524-1018    H    0.24660006    0.69224015    0.32275008    0.12070000
opls_526-1019    H    0.24316010    0.77283013    0.42667003    0.11750000
opls_525-1020    H    0.23968011    0.83160006    0.38063000    0.12780000
opls_524-1021    H    0.24665995    0.83319004    0.19216987    0.12060000
opls_526-1022    H    0.22842010    0.93046991    0.27868989    0.12080000
opls_525-1023    H    0.23020990    0.88041002    0.33450015    0.12470000
opls_146-1024    H    0.13716010    0.20069997    0.96524992    0.12530000
opls_146-1025    H    0.06898992    0.19986007    0.99675008    0.12230000
opls_146-1026    H    0.03583990    0.30672013    0.92706997    0.11740000
opls_146-1027    H    0.10323006    0.30658998    0.89478002    0.12080000
opls_146-1028    H    0.04698014    0.20253009    0.14216987    0.12180000
opls_146-1029    H    0.00090009    0.19941002    0.08352001    0.11750000
opls_146-1030    H    0.05984998    0.30512007    0.03132997    0.12220000
opls_146-1031    H    0.10716010    0.30724015    0.08975985    0.12050000
opls_144-1032    H    0.94564986    0.79834005    0.77500000    0.12900000
opls_144-1033    H    0.56176994    0.74502994    0.69882004    0.11070000
opls_524-1034    H    0.75339994    0.69224015    0.67724992    0.12070000
opls_526-1035    H    0.75683990    0.77283013    0.57332997    0.11750000
opls_525-1036    H    0.76031989    0.83160006    0.61937000    0.12780000
opls_524-1037    H    0.75334005    0.83319004    0.80783013    0.12050000
opls_526-1038    H    0.77157990    0.93046991    0.72131011    0.12080000
opls_525-1039    H    0.76979010    0.88041002    0.66550015    0.12470000
opls_146-1040    H    0.86283990    0.20069997    0.03475008    0.12530000
opls_146-1041    H    0.93101008    0.19986007    0.00324992    0.12230000
opls_146-1042    H    0.96416010    0.30672013    0.07293003    0.11730000
opls_146-1043    H    0.89676994    0.30658998    0.10521998    0.12080000
opls_146-1044    H    0.95301986    0.20253009    0.85783013    0.12190000
opls_146-1045    H    0.99909991    0.19941002    0.91647999    0.11760000
opls_146-1046    H    0.94015002    0.30512007    0.96867003    0.12220000
opls_146-1047    H    0.89283990    0.30724015    0.91024015    0.12050000
opls_144-1048    H    0.05435014    0.20165995    0.77500000    0.12900000
opls_144-1049    H    0.43823006    0.25497006    0.69882004    0.11070000
opls_524-1050    H    0.24660006    0.30775985    0.67724992    0.12070000
opls_526-1051    H    0.24316010    0.22716987    0.57332997    0.11750000
opls_525-1052    H    0.23968011    0.16839994    0.61937000    0.12780000
opls_524-1053    H    0.24665995    0.16680996    0.80783013    0.12050000
opls_526-1054    H    0.22842010    0.06953009    0.72131011    0.12080000
opls_525-1055    H    0.23020990    0.11958998    0.66550015    0.12480000
opls_146-1056    H    0.13716010    0.79930003    0.03475008    0.12530000
opls_146-1057    H    0.06898992    0.80013993    0.00324992    0.12230000
opls_146-1058    H    0.03583990    0.69327987    0.07293003    0.11730000
opls_146-1059    H    0.10323006    0.69341002    0.10521998    0.12090000
opls_146-1060    H    0.04698014    0.79746991    0.85783013    0.12180000
opls_146-1061    H    0.00090009    0.80058998    0.91647999    0.11750000
opls_146-1062    H    0.05984998    0.69487993    0.96867003    0.12220000
opls_146-1063    H    0.10716010    0.69275985    0.91024015    0.12050000
opls_144-1064    H    0.94564986    0.20165995    0.22500000    0.12900000
opls_144-1065    H    0.56176994    0.25497006    0.30117996    0.11070000
opls_524-1066    H    0.75339994    0.30775985    0.32275008    0.12080000
opls_526-1067    H    0.75683990    0.22716987    0.42667003    0.11750000
opls_525-1068    H    0.76031989    0.16839994    0.38063000    0.12790000
opls_524-1069    H    0.75334005    0.16680996    0.19216987    0.12050000
opls_526-1070    H    0.77157990    0.06953009    0.27868989    0.12080000
opls_525-1071    H    0.76979010    0.11958998    0.33450015    0.12470000
opls_146-1072    H    0.86283990    0.79930003    0.96524992    0.12530000
opls_146-1073    H    0.93101008    0.80013993    0.99675008    0.12230000
opls_146-1074    H    0.96416010    0.69327987    0.92706997    0.11730000
opls_146-1075    H    0.89676994    0.69341002    0.89478002    0.12080000
opls_146-1076    H    0.95301986    0.79746991    0.14216987    0.12180000
opls_146-1077    H    0.99909991    0.80058998    0.08352001    0.11750000
opls_146-1078    H    0.94015002    0.69487993    0.03132997    0.12220000
opls_146-1079    H    0.89283990    0.69275985    0.08975985    0.12050000
F2_Ru6+2-1080    Ru    0.25323006    0.74676994    0.74676994    0.49920000
F2_Ru6+2-1081    Ru    0.74676994    0.25323006    0.74676994    0.49950000
F2_Ru6+2-1082    Ru    0.74676994    0.74676994    0.25323006    0.49920000
F2_Ru6+2-1083    Ru    0.25323006    0.25323006    0.25323006    0.49920000
F2_Ru6+2-1084    Ru    0.75323006    0.24676994    0.24676994    0.49930000
F2_Ru6+2-1085    Ru    0.24676994    0.75323006    0.24676994    0.49920000
F2_Ru6+2-1086    Ru    0.24676994    0.24676994    0.75323006    0.49920000
F2_Ru6+2-1087    Ru    0.75323006    0.75323006    0.75323006    0.49920000
