#======================================================================
# Crystal Data Generated By AuToFF
#----------------------------------------------------------------------

data_AuToFF_phase_1

_cell_length_a                         39.8800
_cell_length_b                         35.8100
_cell_length_c                         38.2200
_cell_angle_alpha                      90.00
_cell_angle_beta                       90.00
_cell_angle_gamma                      90.00
_symmetry_space_group_name_H-M_alt     'P 1'
_symmetry_space_group_IT_number        1

loop_
_space_group_symop_operation_xyz
   'x, y, z'

loop_
   _atom_site_label
   _atom_site_type_symbol
   _atom_site_fract_x
   _atom_site_fract_y
   _atom_site_fract_z
   _atom_site_charge
opls_700-0    C    0.68689995    0.93109997    0.74840005    0.06120000
opls_142-1    C    0.80710005    0.02919994    0.55069990    0.02830000
opls_700-2    C    0.65379990    0.90639989    0.81569990    0.05430000
opls_700-3    C    0.63700000    0.89250014    0.85140005    0.05860000
opls_145-4    C    0.60970010    0.86550014    0.85300000    -0.07520000
opls_145-5    C    0.69979990    0.93109997    0.99159995    -0.10890000
opls_145-6    C    0.65429990    0.88429992    0.78469990    -0.11090000
opls_145-7    C    0.67020010    0.89609997    0.75269990    -0.11080000
opls_145-8    C    0.68589995    0.91429992    0.96019990    -0.10820000
opls_145-9    C    0.73320010    0.02460011    0.65930010    -0.20580000
opls_145-10    C    0.73360005    0.98600000    0.66740005    0.16250000
opls_700-11    C    0.74820010    0.04070008    0.62840005    0.06070000
opls_700-12    C    0.67960005    0.94819994    0.01780010    0.06120000
opls_142-13    C    0.70389995    0.94080006    0.71190005    0.02830000
opls_700-14    C    0.65060005    0.91229992    0.95319990    0.05470000
opls_700-15    C    0.63539995    0.89529992    0.91800000    0.05760000
opls_145-16    C    0.60750000    0.86900000    0.91719990    -0.07630000
opls_145-17    C    0.68639995    0.95360011    0.77909995    -0.10890000
opls_145-18    C    0.63060005    0.92880006    0.97980010    -0.10560000
opls_145-19    C    0.64450000    0.94660011    0.01030010    -0.11090000
opls_145-20    C    0.67050000    0.94170008    0.81150000    -0.10800000
opls_145-21    C    0.76770010    0.98009997    0.61150000    -0.18170000
opls_145-22    C    0.76639995    0.01900000    0.60350000    0.16200000
opls_700-23    C    0.75160005    0.96350014    0.64219990    0.05900000
opls_543-24    C    0.57429990    0.78180006    0.88519990    0.14480000
opls_507-25    C    0.52860005    0.83309997    0.88580010    0.15550000
opls_716-26    C    0.51750000    0.86990003    0.88600000    -0.17820000
opls_716-27    C    0.60729990    0.76949986    0.88469990    -0.21080000
opls_700-28    C    0.56450000    0.82170008    0.88550000    -0.13970000
opls_700-29    C    0.59389995    0.85290003    0.88519990    0.05880000
opls_145-30    C    0.64900000    0.90619994    0.88469990    -0.06350000
opls_148-31    C    0.74489995    0.08200000    0.62230010    -0.49250000
opls_148-32    C    0.75429990    0.92200000    0.64709995    -0.49370000
opls_700-33    C    0.31310005    0.56890003    0.74840005    0.06120000
opls_142-34    C    0.19289995    0.47080006    0.55069990    0.02830000
opls_700-35    C    0.34620010    0.59360011    0.81569990    0.05430000
opls_700-36    C    0.36300000    0.60749986    0.85140005    0.05860000
opls_145-37    C    0.39029990    0.63449986    0.85300000    -0.07520000
opls_145-38    C    0.30020010    0.56890003    0.99159995    -0.10890000
opls_145-39    C    0.34570010    0.61570008    0.78469990    -0.11090000
opls_145-40    C    0.32979990    0.60390003    0.75269990    -0.11090000
opls_145-41    C    0.31410005    0.58570008    0.96019990    -0.10810000
opls_145-42    C    0.26679990    0.47539989    0.65930010    -0.20580000
opls_145-43    C    0.26639995    0.51400000    0.66740005    0.16250000
opls_700-44    C    0.25179990    0.45929992    0.62840005    0.06070000
opls_700-45    C    0.32039995    0.55180006    0.01780010    0.06120000
opls_142-46    C    0.29610005    0.55919994    0.71190005    0.02830000
opls_700-47    C    0.34939995    0.58770008    0.95319990    0.05470000
opls_700-48    C    0.36460005    0.60470008    0.91800000    0.05760000
opls_145-49    C    0.39250000    0.63100000    0.91719990    -0.07630000
opls_145-50    C    0.31360005    0.54639989    0.77909995    -0.10890000
opls_145-51    C    0.36939995    0.57119994    0.97980010    -0.10560000
opls_145-52    C    0.35550000    0.55339989    0.01030010    -0.11090000
opls_145-53    C    0.32950000    0.55829992    0.81150000    -0.10800000
opls_145-54    C    0.23229990    0.51990003    0.61150000    -0.18170000
opls_145-55    C    0.23360005    0.48100000    0.60350000    0.16200000
opls_700-56    C    0.24839995    0.53649986    0.64219990    0.05900000
opls_543-57    C    0.42570010    0.71819994    0.88519990    0.14470000
opls_507-58    C    0.47139995    0.66690003    0.88580010    0.15530000
opls_716-59    C    0.48250000    0.63009997    0.88600000    -0.17820000
opls_716-60    C    0.39270010    0.73050014    0.88469990    -0.21080000
opls_700-61    C    0.43550000    0.67829992    0.88550000    -0.13970000
opls_700-62    C    0.40610005    0.64709997    0.88519990    0.05880000
opls_145-63    C    0.35100000    0.59380006    0.88469990    -0.06350000
opls_148-64    C    0.25510005    0.41800000    0.62230010    -0.49240000
opls_148-65    C    0.24570010    0.57800000    0.64709995    -0.49360000
opls_700-66    C    0.31310005    0.43109997    0.25159995    0.06120000
opls_142-67    C    0.19289995    0.52919994    0.44930010    0.02830000
opls_700-68    C    0.34620010    0.40639989    0.18430010    0.05430000
opls_700-69    C    0.36300000    0.39249986    0.14859995    0.05860000
opls_145-70    C    0.39029990    0.36549986    0.14700000    -0.07520000
opls_145-71    C    0.30020010    0.43109997    0.00840005    -0.10890000
opls_145-72    C    0.34570010    0.38429992    0.21530010    -0.11080000
opls_145-73    C    0.32979990    0.39609997    0.24730010    -0.11090000
opls_145-74    C    0.31410005    0.41429992    0.03980010    -0.10820000
opls_145-75    C    0.26679990    0.52460011    0.34069990    -0.20580000
opls_145-76    C    0.26639995    0.48600000    0.33259995    0.16250000
opls_700-77    C    0.25179990    0.54070008    0.37159995    0.06070000
opls_700-78    C    0.32039995    0.44819994    0.98219990    0.06120000
opls_142-79    C    0.29610005    0.44080006    0.28809995    0.02830000
opls_700-80    C    0.34939995    0.41229992    0.04680010    0.05470000
opls_700-81    C    0.36460005    0.39529992    0.08200000    0.05760000
opls_145-82    C    0.39250000    0.36900000    0.08280010    -0.07630000
opls_145-83    C    0.31360005    0.45360011    0.22090005    -0.10890000
opls_145-84    C    0.36939995    0.42880006    0.02019990    -0.10560000
opls_145-85    C    0.35550000    0.44660011    0.98969990    -0.11090000
opls_145-86    C    0.32950000    0.44170008    0.18850000    -0.10800000
opls_145-87    C    0.23229990    0.48009997    0.38850000    -0.18170000
opls_145-88    C    0.23360005    0.51900000    0.39650000    0.16200000
opls_700-89    C    0.24839995    0.46349986    0.35780010    0.05900000
opls_543-90    C    0.42570010    0.28180006    0.11480010    0.14470000
opls_507-91    C    0.47139995    0.33309997    0.11419990    0.15540000
opls_716-92    C    0.48250000    0.36990003    0.11400000    -0.17820000
opls_716-93    C    0.39270010    0.26950014    0.11530010    -0.21080000
opls_700-94    C    0.43550000    0.32170008    0.11450000    -0.13970000
opls_700-95    C    0.40610005    0.35290003    0.11480010    0.05880000
opls_145-96    C    0.35100000    0.40619994    0.11530010    -0.06350000
opls_148-97    C    0.25510005    0.58200000    0.37769990    -0.49230000
opls_148-98    C    0.24570010    0.42200000    0.35290005    -0.49360000
opls_700-99    C    0.68689995    0.06890003    0.25159995    0.06120000
opls_142-100    C    0.80710005    0.97080006    0.44930010    0.02830000
opls_700-101    C    0.65379990    0.09360011    0.18430010    0.05430000
opls_700-102    C    0.63700000    0.10750014    0.14859995    0.05870000
opls_145-103    C    0.60970010    0.13449986    0.14700000    -0.07520000
opls_145-104    C    0.69979990    0.06890003    0.00840005    -0.10890000
opls_145-105    C    0.65429990    0.11570008    0.21530010    -0.11090000
opls_145-106    C    0.67020010    0.10390003    0.24730010    -0.11090000
opls_145-107    C    0.68589995    0.08570008    0.03980010    -0.10820000
opls_145-108    C    0.73320010    0.97539989    0.34069990    -0.20580000
opls_145-109    C    0.73360005    0.01400000    0.33259995    0.16250000
opls_700-110    C    0.74820010    0.95929992    0.37159995    0.06070000
opls_700-111    C    0.67960005    0.05180006    0.98219990    0.06120000
opls_142-112    C    0.70389995    0.05919994    0.28809995    0.02840000
opls_700-113    C    0.65060005    0.08770008    0.04680010    0.05470000
opls_700-114    C    0.63539995    0.10470008    0.08200000    0.05760000
opls_145-115    C    0.60750000    0.13100000    0.08280010    -0.07630000
opls_145-116    C    0.68639995    0.04639989    0.22090005    -0.10890000
opls_145-117    C    0.63060005    0.07119994    0.02019990    -0.10560000
opls_145-118    C    0.64450000    0.05339989    0.98969990    -0.11090000
opls_145-119    C    0.67050000    0.05829992    0.18850000    -0.10800000
opls_145-120    C    0.76770010    0.01990003    0.38850000    -0.18170000
opls_145-121    C    0.76639995    0.98100000    0.39650000    0.16200000
opls_700-122    C    0.75160005    0.03649986    0.35780010    0.05910000
opls_543-123    C    0.57429990    0.21819994    0.11480010    0.14480000
opls_507-124    C    0.52860005    0.16690003    0.11419990    0.15540000
opls_716-125    C    0.51750000    0.13009997    0.11400000    -0.17820000
opls_716-126    C    0.60729990    0.23050014    0.11530010    -0.21080000
opls_700-127    C    0.56450000    0.17829992    0.11450000    -0.13970000
opls_700-128    C    0.59389995    0.14709997    0.11480010    0.05880000
opls_145-129    C    0.64900000    0.09380006    0.11530010    -0.06350000
opls_148-130    C    0.74489995    0.91800000    0.37769990    -0.49240000
opls_148-131    C    0.75429990    0.07800000    0.35290005    -0.49360000
opls_700-132    C    0.31310005    0.06890003    0.25159995    0.06120000
opls_142-133    C    0.19289995    0.97080006    0.44930010    0.02830000
opls_700-134    C    0.34620010    0.09360011    0.18430010    0.05430000
opls_700-135    C    0.36300000    0.10750014    0.14859995    0.05860000
opls_145-136    C    0.39029990    0.13449986    0.14700000    -0.07520000
opls_145-137    C    0.30020010    0.06890003    0.00840005    -0.10890000
opls_145-138    C    0.34570010    0.11570008    0.21530010    -0.11090000
opls_145-139    C    0.32979990    0.10390003    0.24730010    -0.11080000
opls_145-140    C    0.31410005    0.08570008    0.03980010    -0.10820000
opls_145-141    C    0.26679990    0.97539989    0.34069990    -0.20580000
opls_145-142    C    0.26639995    0.01400000    0.33259995    0.16250000
opls_700-143    C    0.25179990    0.95929992    0.37159995    0.06070000
opls_700-144    C    0.32039995    0.05180006    0.98219990    0.06130000
opls_142-145    C    0.29610005    0.05919994    0.28809995    0.02830000
opls_700-146    C    0.34939995    0.08770008    0.04680010    0.05470000
opls_700-147    C    0.36460005    0.10470008    0.08200000    0.05760000
opls_145-148    C    0.39250000    0.13100000    0.08280010    -0.07630000
opls_145-149    C    0.31360005    0.04639989    0.22090005    -0.10890000
opls_145-150    C    0.36939995    0.07119994    0.02019990    -0.10560000
opls_145-151    C    0.35550000    0.05339989    0.98969990    -0.11090000
opls_145-152    C    0.32950000    0.05829992    0.18850000    -0.10800000
opls_145-153    C    0.23229990    0.01990003    0.38850000    -0.18170000
opls_145-154    C    0.23360005    0.98100000    0.39650000    0.16200000
opls_700-155    C    0.24839995    0.03649986    0.35780010    0.05900000
opls_543-156    C    0.42570010    0.21819994    0.11480010    0.14470000
opls_507-157    C    0.47139995    0.16690003    0.11419990    0.15530000
opls_716-158    C    0.48250000    0.13009997    0.11400000    -0.17820000
opls_716-159    C    0.39270010    0.23050014    0.11530010    -0.21080000
opls_700-160    C    0.43550000    0.17829992    0.11450000    -0.13970000
opls_700-161    C    0.40610005    0.14709997    0.11480010    0.05890000
opls_145-162    C    0.35100000    0.09380006    0.11530010    -0.06350000
opls_148-163    C    0.25510005    0.91800000    0.37769990    -0.49240000
opls_148-164    C    0.24570010    0.07800000    0.35290005    -0.49370000
opls_700-165    C    0.68689995    0.43109997    0.25159995    0.06120000
opls_142-166    C    0.80710005    0.52919994    0.44930010    0.02830000
opls_700-167    C    0.65379990    0.40639989    0.18430010    0.05430000
opls_700-168    C    0.63700000    0.39249986    0.14859995    0.05860000
opls_145-169    C    0.60970010    0.36549986    0.14700000    -0.07520000
opls_145-170    C    0.69979990    0.43109997    0.00840005    -0.10890000
opls_145-171    C    0.65429990    0.38429992    0.21530010    -0.11090000
opls_145-172    C    0.67020010    0.39609997    0.24730010    -0.11090000
opls_145-173    C    0.68589995    0.41429992    0.03980010    -0.10820000
opls_145-174    C    0.73320010    0.52460011    0.34069990    -0.20580000
opls_145-175    C    0.73360005    0.48600000    0.33259995    0.16250000
opls_700-176    C    0.74820010    0.54070008    0.37159995    0.06070000
opls_700-177    C    0.67960005    0.44819994    0.98219990    0.06120000
opls_142-178    C    0.70389995    0.44080006    0.28809995    0.02830000
opls_700-179    C    0.65060005    0.41229992    0.04680010    0.05470000
opls_700-180    C    0.63539995    0.39529992    0.08200000    0.05760000
opls_145-181    C    0.60750000    0.36900000    0.08280010    -0.07630000
opls_145-182    C    0.68639995    0.45360011    0.22090005    -0.10890000
opls_145-183    C    0.63060005    0.42880006    0.02019990    -0.10560000
opls_145-184    C    0.64450000    0.44660011    0.98969990    -0.11090000
opls_145-185    C    0.67050000    0.44170008    0.18850000    -0.10800000
opls_145-186    C    0.76770010    0.48009997    0.38850000    -0.18160000
opls_145-187    C    0.76639995    0.51900000    0.39650000    0.16200000
opls_700-188    C    0.75160005    0.46349986    0.35780010    0.05900000
opls_543-189    C    0.57429990    0.28180006    0.11480010    0.14470000
opls_507-190    C    0.52860005    0.33309997    0.11419990    0.15530000
opls_716-191    C    0.51750000    0.36990003    0.11400000    -0.17820000
opls_716-192    C    0.60729990    0.26950014    0.11530010    -0.21080000
opls_700-193    C    0.56450000    0.32170008    0.11450000    -0.13970000
opls_700-194    C    0.59389995    0.35290003    0.11480010    0.05880000
opls_145-195    C    0.64900000    0.40619994    0.11530010    -0.06350000
opls_148-196    C    0.74489995    0.58200000    0.37769990    -0.49240000
opls_148-197    C    0.75429990    0.42200000    0.35290005    -0.49370000
opls_700-198    C    0.68689995    0.56890003    0.74840005    0.06120000
opls_142-199    C    0.80710005    0.47080006    0.55069990    0.02830000
opls_700-200    C    0.65379990    0.59360011    0.81569990    0.05430000
opls_700-201    C    0.63700000    0.60749986    0.85140005    0.05860000
opls_145-202    C    0.60970010    0.63449986    0.85300000    -0.07520000
opls_145-203    C    0.69979990    0.56890003    0.99159995    -0.10890000
opls_145-204    C    0.65429990    0.61570008    0.78469990    -0.11090000
opls_145-205    C    0.67020010    0.60390003    0.75269990    -0.11090000
opls_145-206    C    0.68589995    0.58570008    0.96019990    -0.10820000
opls_145-207    C    0.73320010    0.47539989    0.65930010    -0.20580000
opls_145-208    C    0.73360005    0.51400000    0.66740005    0.16260000
opls_700-209    C    0.74820010    0.45929992    0.62840005    0.06080000
opls_700-210    C    0.67960005    0.55180006    0.01780010    0.06120000
opls_142-211    C    0.70389995    0.55919994    0.71190005    0.02830000
opls_700-212    C    0.65060005    0.58770008    0.95319990    0.05470000
opls_700-213    C    0.63539995    0.60470008    0.91800000    0.05760000
opls_145-214    C    0.60750000    0.63100000    0.91719990    -0.07630000
opls_145-215    C    0.68639995    0.54639989    0.77909995    -0.10890000
opls_145-216    C    0.63060005    0.57119994    0.97980010    -0.10560000
opls_145-217    C    0.64450000    0.55339989    0.01030010    -0.11090000
opls_145-218    C    0.67050000    0.55829992    0.81150000    -0.10800000
opls_145-219    C    0.76770010    0.51990003    0.61150000    -0.18170000
opls_145-220    C    0.76639995    0.48100000    0.60350000    0.16200000
opls_700-221    C    0.75160005    0.53649986    0.64219990    0.05900000
opls_543-222    C    0.57429990    0.71819994    0.88519990    0.14470000
opls_507-223    C    0.52860005    0.66690003    0.88580010    0.15530000
opls_716-224    C    0.51750000    0.63009997    0.88600000    -0.17810000
opls_716-225    C    0.60729990    0.73050014    0.88469990    -0.21080000
opls_700-226    C    0.56450000    0.67829992    0.88550000    -0.13970000
opls_700-227    C    0.59389995    0.64709997    0.88519990    0.05880000
opls_145-228    C    0.64900000    0.59380006    0.88469990    -0.06350000
opls_148-229    C    0.74489995    0.41800000    0.62230010    -0.49250000
opls_148-230    C    0.75429990    0.57800000    0.64709995    -0.49370000
opls_700-231    C    0.31310005    0.93109997    0.74840005    0.06120000
opls_142-232    C    0.19289995    0.02919994    0.55069990    0.02830000
opls_700-233    C    0.34620010    0.90639989    0.81569990    0.05430000
opls_700-234    C    0.36300000    0.89250014    0.85140005    0.05860000
opls_145-235    C    0.39029990    0.86550014    0.85300000    -0.07520000
opls_145-236    C    0.30020010    0.93109997    0.99159995    -0.10890000
opls_145-237    C    0.34570010    0.88429992    0.78469990    -0.11090000
opls_145-238    C    0.32979990    0.89609997    0.75269990    -0.11090000
opls_145-239    C    0.31410005    0.91429992    0.96019990    -0.10820000
opls_145-240    C    0.26679990    0.02460011    0.65930010    -0.20580000
opls_145-241    C    0.26639995    0.98600000    0.66740005    0.16250000
opls_700-242    C    0.25179990    0.04070008    0.62840005    0.06070000
opls_700-243    C    0.32039995    0.94819994    0.01780010    0.06120000
opls_142-244    C    0.29610005    0.94080006    0.71190005    0.02840000
opls_700-245    C    0.34939995    0.91229992    0.95319990    0.05470000
opls_700-246    C    0.36460005    0.89529992    0.91800000    0.05760000
opls_145-247    C    0.39250000    0.86900000    0.91719990    -0.07630000
opls_145-248    C    0.31360005    0.95360011    0.77909995    -0.10890000
opls_145-249    C    0.36939995    0.92880006    0.97980010    -0.10560000
opls_145-250    C    0.35550000    0.94660011    0.01030010    -0.11080000
opls_145-251    C    0.32950000    0.94170008    0.81150000    -0.10800000
opls_145-252    C    0.23229990    0.98009997    0.61150000    -0.18170000
opls_145-253    C    0.23360005    0.01900000    0.60350000    0.16200000
opls_700-254    C    0.24839995    0.96350014    0.64219990    0.05900000
opls_543-255    C    0.42570010    0.78180006    0.88519990    0.14480000
opls_507-256    C    0.47139995    0.83309997    0.88580010    0.15530000
opls_716-257    C    0.48250000    0.86990003    0.88600000    -0.17820000
opls_716-258    C    0.39270010    0.76949986    0.88469990    -0.21080000
opls_700-259    C    0.43550000    0.82170008    0.88550000    -0.13970000
opls_700-260    C    0.40610005    0.85290003    0.88519990    0.05880000
opls_145-261    C    0.35100000    0.90619994    0.88469990    -0.06350000
opls_148-262    C    0.25510005    0.08200000    0.62230010    -0.49250000
opls_148-263    C    0.24570010    0.92200000    0.64709995    -0.49350000
opls_700-264    C    0.18689995    0.43109997    0.24840005    0.06120000
opls_142-265    C    0.30710005    0.52919994    0.05069990    0.02830000
opls_700-266    C    0.15379990    0.40639989    0.31569990    0.05430000
opls_700-267    C    0.13700000    0.39249986    0.35140005    0.05860000
opls_145-268    C    0.10970010    0.36549986    0.35300000    -0.07510000
opls_145-269    C    0.19979990    0.43109997    0.49159995    -0.10890000
opls_145-270    C    0.15429990    0.38429992    0.28469990    -0.11090000
opls_145-271    C    0.17020010    0.39609997    0.25269990    -0.11090000
opls_145-272    C    0.18589995    0.41429992    0.46019990    -0.10820000
opls_145-273    C    0.23320010    0.52460011    0.15930010    -0.20580000
opls_145-274    C    0.23360005    0.48600000    0.16740005    0.16250000
opls_700-275    C    0.24820010    0.54070008    0.12840005    0.06070000
opls_700-276    C    0.17960005    0.44819994    0.51780010    0.06120000
opls_142-277    C    0.20389995    0.44080006    0.21190005    0.02830000
opls_700-278    C    0.15060005    0.41229992    0.45319990    0.05470000
opls_700-279    C    0.13539995    0.39529992    0.41800000    0.05760000
opls_145-280    C    0.10750000    0.36900000    0.41719990    -0.07630000
opls_145-281    C    0.18639995    0.45360011    0.27909995    -0.10890000
opls_145-282    C    0.13060005    0.42880006    0.47980010    -0.10560000
opls_145-283    C    0.14450000    0.44660011    0.51030010    -0.11090000
opls_145-284    C    0.17050000    0.44170008    0.31150000    -0.10790000
opls_145-285    C    0.26770010    0.48009997    0.11150000    -0.18170000
opls_145-286    C    0.26639995    0.51900000    0.10350000    0.16200000
opls_700-287    C    0.25160005    0.46349986    0.14219990    0.05900000
opls_543-288    C    0.07429990    0.28180006    0.38519990    0.14470000
opls_507-289    C    0.02860005    0.33309997    0.38580010    0.15530000
opls_716-290    C    0.01750000    0.36990003    0.38600000    -0.17810000
opls_716-291    C    0.10729990    0.26950014    0.38469990    -0.21080000
opls_700-292    C    0.06450000    0.32170008    0.38550000    -0.13970000
opls_700-293    C    0.09389995    0.35290003    0.38519990    0.05880000
opls_145-294    C    0.14900000    0.40619994    0.38469990    -0.06350000
opls_148-295    C    0.24489995    0.58200000    0.12230010    -0.49230000
opls_148-296    C    0.25429990    0.42200000    0.14709995    -0.49370000
opls_700-297    C    0.81310005    0.06890003    0.24840005    0.06120000
opls_142-298    C    0.69289995    0.97080006    0.05069990    0.02830000
opls_700-299    C    0.84620010    0.09360011    0.31569990    0.05430000
opls_700-300    C    0.86300000    0.10750014    0.35140005    0.05860000
opls_145-301    C    0.89029990    0.13449986    0.35300000    -0.07520000
opls_145-302    C    0.80020010    0.06890003    0.49159995    -0.10890000
opls_145-303    C    0.84570010    0.11570008    0.28469990    -0.11090000
opls_145-304    C    0.82979990    0.10390003    0.25269990    -0.11090000
opls_145-305    C    0.81410005    0.08570008    0.46019990    -0.10820000
opls_145-306    C    0.76679990    0.97539989    0.15930010    -0.20580000
opls_145-307    C    0.76639995    0.01400000    0.16740005    0.16250000
opls_700-308    C    0.75179990    0.95929992    0.12840005    0.06070000
opls_700-309    C    0.82039995    0.05180006    0.51780010    0.06120000
opls_142-310    C    0.79610005    0.05919994    0.21190005    0.02830000
opls_700-311    C    0.84939995    0.08770008    0.45319990    0.05470000
opls_700-312    C    0.86460005    0.10470008    0.41800000    0.05760000
opls_145-313    C    0.89250000    0.13100000    0.41719990    -0.07630000
opls_145-314    C    0.81360005    0.04639989    0.27909995    -0.10890000
opls_145-315    C    0.86939995    0.07119994    0.47980010    -0.10560000
opls_145-316    C    0.85550000    0.05339989    0.51030010    -0.11080000
opls_145-317    C    0.82950000    0.05829992    0.31150000    -0.10800000
opls_145-318    C    0.73229990    0.01990003    0.11150000    -0.18160000
opls_145-319    C    0.73360005    0.98100000    0.10350000    0.16210000
opls_700-320    C    0.74839995    0.03649986    0.14219990    0.05900000
opls_543-321    C    0.92570010    0.21819994    0.38519990    0.14470000
opls_507-322    C    0.97139995    0.16690003    0.38580010    0.15530000
opls_716-323    C    0.98250000    0.13009997    0.38600000    -0.17820000
opls_716-324    C    0.89270010    0.23050014    0.38469990    -0.21080000
opls_700-325    C    0.93550000    0.17829992    0.38550000    -0.13970000
opls_700-326    C    0.90610005    0.14709997    0.38519990    0.05880000
opls_145-327    C    0.85100000    0.09380006    0.38469990    -0.06350000
opls_148-328    C    0.75510005    0.91800000    0.12230010    -0.49250000
opls_148-329    C    0.74570010    0.07800000    0.14709995    -0.49370000
opls_700-330    C    0.81310005    0.93109997    0.75159995    0.06120000
opls_142-331    C    0.69289995    0.02919994    0.94930010    0.02830000
opls_700-332    C    0.84620010    0.90639989    0.68430010    0.05430000
opls_700-333    C    0.86300000    0.89250014    0.64859995    0.05860000
opls_145-334    C    0.89029990    0.86550014    0.64700000    -0.07520000
opls_145-335    C    0.80020010    0.93109997    0.50840005    -0.10890000
opls_145-336    C    0.84570010    0.88429992    0.71530010    -0.11090000
opls_145-337    C    0.82979990    0.89609997    0.74730010    -0.11090000
opls_145-338    C    0.81410005    0.91429992    0.53980010    -0.10820000
opls_145-339    C    0.76679990    0.02460011    0.84069990    -0.20580000
opls_145-340    C    0.76639995    0.98600000    0.83259995    0.16250000
opls_700-341    C    0.75179990    0.04070008    0.87159995    0.06070000
opls_700-342    C    0.82039995    0.94819994    0.48219990    0.06120000
opls_142-343    C    0.79610005    0.94080006    0.78809995    0.02830000
opls_700-344    C    0.84939995    0.91229992    0.54680010    0.05470000
opls_700-345    C    0.86460005    0.89529992    0.58200000    0.05760000
opls_145-346    C    0.89250000    0.86900000    0.58280010    -0.07630000
opls_145-347    C    0.81360005    0.95360011    0.72090005    -0.10890000
opls_145-348    C    0.86939995    0.92880006    0.52019990    -0.10560000
opls_145-349    C    0.85550000    0.94660011    0.48969990    -0.11090000
opls_145-350    C    0.82950000    0.94170008    0.68850000    -0.10800000
opls_145-351    C    0.73229990    0.98009997    0.88850000    -0.18170000
opls_145-352    C    0.73360005    0.01900000    0.89650000    0.16200000
opls_700-353    C    0.74839995    0.96350014    0.85780010    0.05900000
opls_543-354    C    0.92570010    0.78180006    0.61480010    0.14470000
opls_507-355    C    0.97139995    0.83309997    0.61419990    0.15530000
opls_716-356    C    0.98250000    0.86990003    0.61400000    -0.17820000
opls_716-357    C    0.89270010    0.76949986    0.61530010    -0.21080000
opls_700-358    C    0.93550000    0.82170008    0.61450000    -0.13960000
opls_700-359    C    0.90610005    0.85290003    0.61480010    0.05880000
opls_145-360    C    0.85100000    0.90619994    0.61530010    -0.06350000
opls_148-361    C    0.75510005    0.08200000    0.87769990    -0.49240000
opls_148-362    C    0.74570010    0.92200000    0.85290005    -0.49360000
opls_700-363    C    0.18689995    0.56890003    0.75159995    0.06120000
opls_142-364    C    0.30710005    0.47080006    0.94930010    0.02830000
opls_700-365    C    0.15379990    0.59360011    0.68430010    0.05430000
opls_700-366    C    0.13700000    0.60749986    0.64859995    0.05860000
opls_145-367    C    0.10970010    0.63449986    0.64700000    -0.07520000
opls_145-368    C    0.19979990    0.56890003    0.50840005    -0.10890000
opls_145-369    C    0.15429990    0.61570008    0.71530010    -0.11090000
opls_145-370    C    0.17020010    0.60390003    0.74730010    -0.11090000
opls_145-371    C    0.18589995    0.58570008    0.53980010    -0.10820000
opls_145-372    C    0.23320010    0.47539989    0.84069990    -0.20580000
opls_145-373    C    0.23360005    0.51400000    0.83259995    0.16250000
opls_700-374    C    0.24820010    0.45929992    0.87159995    0.06070000
opls_700-375    C    0.17960005    0.55180006    0.48219990    0.06120000
opls_142-376    C    0.20389995    0.55919994    0.78809995    0.02830000
opls_700-377    C    0.15060005    0.58770008    0.54680010    0.05470000
opls_700-378    C    0.13539995    0.60470008    0.58200000    0.05760000
opls_145-379    C    0.10750000    0.63100000    0.58280010    -0.07630000
opls_145-380    C    0.18639995    0.54639989    0.72090005    -0.10890000
opls_145-381    C    0.13060005    0.57119994    0.52019990    -0.10560000
opls_145-382    C    0.14450000    0.55339989    0.48969990    -0.11090000
opls_145-383    C    0.17050000    0.55829992    0.68850000    -0.10790000
opls_145-384    C    0.26770010    0.51990003    0.88850000    -0.18170000
opls_145-385    C    0.26639995    0.48100000    0.89650000    0.16200000
opls_700-386    C    0.25160005    0.53649986    0.85780010    0.05900000
opls_543-387    C    0.07429990    0.71819994    0.61480010    0.14470000
opls_507-388    C    0.02860005    0.66690003    0.61419990    0.15530000
opls_716-389    C    0.01750000    0.63009997    0.61400000    -0.17820000
opls_716-390    C    0.10729990    0.73050014    0.61530010    -0.21080000
opls_700-391    C    0.06450000    0.67829992    0.61450000    -0.13970000
opls_700-392    C    0.09389995    0.64709997    0.61480010    0.05880000
opls_145-393    C    0.14900000    0.59380006    0.61530010    -0.06350000
opls_148-394    C    0.24489995    0.41800000    0.87769990    -0.49240000
opls_148-395    C    0.25429990    0.57800000    0.85290005    -0.49370000
opls_700-396    C    0.81310005    0.56890003    0.75159995    0.06120000
opls_142-397    C    0.69289995    0.47080006    0.94930010    0.02830000
opls_700-398    C    0.84620010    0.59360011    0.68430010    0.05430000
opls_700-399    C    0.86300000    0.60749986    0.64859995    0.05860000
opls_145-400    C    0.89029990    0.63449986    0.64700000    -0.07520000
opls_145-401    C    0.80020010    0.56890003    0.50840005    -0.10890000
opls_145-402    C    0.84570010    0.61570008    0.71530010    -0.11090000
opls_145-403    C    0.82979990    0.60390003    0.74730010    -0.11090000
opls_145-404    C    0.81410005    0.58570008    0.53980010    -0.10820000
opls_145-405    C    0.76679990    0.47539989    0.84069990    -0.20580000
opls_145-406    C    0.76639995    0.51400000    0.83259995    0.16250000
opls_700-407    C    0.75179990    0.45929992    0.87159995    0.06070000
opls_700-408    C    0.82039995    0.55180006    0.48219990    0.06120000
opls_142-409    C    0.79610005    0.55919994    0.78809995    0.02830000
opls_700-410    C    0.84939995    0.58770008    0.54680010    0.05470000
opls_700-411    C    0.86460005    0.60470008    0.58200000    0.05760000
opls_145-412    C    0.89250000    0.63100000    0.58280010    -0.07630000
opls_145-413    C    0.81360005    0.54639989    0.72090005    -0.10870000
opls_145-414    C    0.86939995    0.57119994    0.52019990    -0.10560000
opls_145-415    C    0.85550000    0.55339989    0.48969990    -0.11090000
opls_145-416    C    0.82950000    0.55829992    0.68850000    -0.10800000
opls_145-417    C    0.73229990    0.51990003    0.88850000    -0.18170000
opls_145-418    C    0.73360005    0.48100000    0.89650000    0.16200000
opls_700-419    C    0.74839995    0.53649986    0.85780010    0.05900000
opls_543-420    C    0.92570010    0.71819994    0.61480010    0.14470000
opls_507-421    C    0.97139995    0.66690003    0.61419990    0.15530000
opls_716-422    C    0.98250000    0.63009997    0.61400000    -0.17810000
opls_716-423    C    0.89270010    0.73050014    0.61530010    -0.21080000
opls_700-424    C    0.93550000    0.67829992    0.61450000    -0.13970000
opls_700-425    C    0.90610005    0.64709997    0.61480010    0.05880000
opls_145-426    C    0.85100000    0.59380006    0.61530010    -0.06350000
opls_148-427    C    0.75510005    0.41800000    0.87769990    -0.49250000
opls_148-428    C    0.74570010    0.57800000    0.85290005    -0.49370000
opls_700-429    C    0.18689995    0.93109997    0.75159995    0.06120000
opls_142-430    C    0.30710005    0.02919994    0.94930010    0.02830000
opls_700-431    C    0.15379990    0.90639989    0.68430010    0.05440000
opls_700-432    C    0.13700000    0.89250014    0.64859995    0.05870000
opls_145-433    C    0.10970010    0.86550014    0.64700000    -0.07520000
opls_145-434    C    0.19979990    0.93109997    0.50840005    -0.10880000
opls_145-435    C    0.15429990    0.88429992    0.71530010    -0.11090000
opls_145-436    C    0.17020010    0.89609997    0.74730010    -0.11090000
opls_145-437    C    0.18589995    0.91429992    0.53980010    -0.10820000
opls_145-438    C    0.23320010    0.02460011    0.84069990    -0.20580000
opls_145-439    C    0.23360005    0.98600000    0.83259995    0.16250000
opls_700-440    C    0.24820010    0.04070008    0.87159995    0.06070000
opls_700-441    C    0.17960005    0.94819994    0.48219990    0.06120000
opls_142-442    C    0.20389995    0.94080006    0.78809995    0.02830000
opls_700-443    C    0.15060005    0.91229992    0.54680010    0.05470000
opls_700-444    C    0.13539995    0.89529992    0.58200000    0.05760000
opls_145-445    C    0.10750000    0.86900000    0.58280010    -0.07620000
opls_145-446    C    0.18639995    0.95360011    0.72090005    -0.10890000
opls_145-447    C    0.13060005    0.92880006    0.52019990    -0.10560000
opls_145-448    C    0.14450000    0.94660011    0.48969990    -0.11090000
opls_145-449    C    0.17050000    0.94170008    0.68850000    -0.10800000
opls_145-450    C    0.26770010    0.98009997    0.88850000    -0.18170000
opls_145-451    C    0.26639995    0.01900000    0.89650000    0.16200000
opls_700-452    C    0.25160005    0.96350014    0.85780010    0.05900000
opls_543-453    C    0.07429990    0.78180006    0.61480010    0.14470000
opls_507-454    C    0.02860005    0.83309997    0.61419990    0.15540000
opls_716-455    C    0.01750000    0.86990003    0.61400000    -0.17820000
opls_716-456    C    0.10729990    0.76949986    0.61530010    -0.21080000
opls_700-457    C    0.06450000    0.82170008    0.61450000    -0.13970000
opls_700-458    C    0.09389995    0.85290003    0.61480010    0.05880000
opls_145-459    C    0.14900000    0.90619994    0.61530010    -0.06340000
opls_148-460    C    0.24489995    0.08200000    0.87769990    -0.49250000
opls_148-461    C    0.25429990    0.92200000    0.85290005    -0.49350000
opls_700-462    C    0.18689995    0.06890003    0.24840005    0.06120000
opls_142-463    C    0.30710005    0.97080006    0.05069990    0.02830000
opls_700-464    C    0.15379990    0.09360011    0.31569990    0.05430000
opls_700-465    C    0.13700000    0.10750014    0.35140005    0.05860000
opls_145-466    C    0.10970010    0.13449986    0.35300000    -0.07520000
opls_145-467    C    0.19979990    0.06890003    0.49159995    -0.10890000
opls_145-468    C    0.15429990    0.11570008    0.28469990    -0.11090000
opls_145-469    C    0.17020010    0.10390003    0.25269990    -0.11090000
opls_145-470    C    0.18589995    0.08570008    0.46019990    -0.10820000
opls_145-471    C    0.23320010    0.97539989    0.15930010    -0.20580000
opls_145-472    C    0.23360005    0.01400000    0.16740005    0.16250000
opls_700-473    C    0.24820010    0.95929992    0.12840005    0.06070000
opls_700-474    C    0.17960005    0.05180006    0.51780010    0.06120000
opls_142-475    C    0.20389995    0.05919994    0.21190005    0.02830000
opls_700-476    C    0.15060005    0.08770008    0.45319990    0.05470000
opls_700-477    C    0.13539995    0.10470008    0.41800000    0.05760000
opls_145-478    C    0.10750000    0.13100000    0.41719990    -0.07630000
opls_145-479    C    0.18639995    0.04639989    0.27909995    -0.10890000
opls_145-480    C    0.13060005    0.07119994    0.47980010    -0.10560000
opls_145-481    C    0.14450000    0.05339989    0.51030010    -0.11090000
opls_145-482    C    0.17050000    0.05829992    0.31150000    -0.10800000
opls_145-483    C    0.26770010    0.01990003    0.11150000    -0.18170000
opls_145-484    C    0.26639995    0.98100000    0.10350000    0.16200000
opls_700-485    C    0.25160005    0.03649986    0.14219990    0.05900000
opls_543-486    C    0.07429990    0.21819994    0.38519990    0.14470000
opls_507-487    C    0.02860005    0.16690003    0.38580010    0.15530000
opls_716-488    C    0.01750000    0.13009997    0.38600000    -0.17820000
opls_716-489    C    0.10729990    0.23050014    0.38469990    -0.21080000
opls_700-490    C    0.06450000    0.17829992    0.38550000    -0.13970000
opls_700-491    C    0.09389995    0.14709997    0.38519990    0.05880000
opls_145-492    C    0.14900000    0.09380006    0.38469990    -0.06350000
opls_148-493    C    0.24489995    0.91800000    0.12230010    -0.49250000
opls_148-494    C    0.25429990    0.07800000    0.14709995    -0.49370000
opls_700-495    C    0.81310005    0.43109997    0.24840005    0.06120000
opls_142-496    C    0.69289995    0.52919994    0.05069990    0.02830000
opls_700-497    C    0.84620010    0.40639989    0.31569990    0.05430000
opls_700-498    C    0.86300000    0.39249986    0.35140005    0.05860000
opls_145-499    C    0.89029990    0.36549986    0.35300000    -0.07520000
opls_145-500    C    0.80020010    0.43109997    0.49159995    -0.10890000
opls_145-501    C    0.84570010    0.38429992    0.28469990    -0.11090000
opls_145-502    C    0.82979990    0.39609997    0.25269990    -0.11090000
opls_145-503    C    0.81410005    0.41429992    0.46019990    -0.10820000
opls_145-504    C    0.76679990    0.52460011    0.15930010    -0.20580000
opls_145-505    C    0.76639995    0.48600000    0.16740005    0.16250000
opls_700-506    C    0.75179990    0.54070008    0.12840005    0.06070000
opls_700-507    C    0.82039995    0.44819994    0.51780010    0.06120000
opls_142-508    C    0.79610005    0.44080006    0.21190005    0.02830000
opls_700-509    C    0.84939995    0.41229992    0.45319990    0.05470000
opls_700-510    C    0.86460005    0.39529992    0.41800000    0.05760000
opls_145-511    C    0.89250000    0.36900000    0.41719990    -0.07630000
opls_145-512    C    0.81360005    0.45360011    0.27909995    -0.10890000
opls_145-513    C    0.86939995    0.42880006    0.47980010    -0.10560000
opls_145-514    C    0.85550000    0.44660011    0.51030010    -0.11090000
opls_145-515    C    0.82950000    0.44170008    0.31150000    -0.10800000
opls_145-516    C    0.73229990    0.48009997    0.11150000    -0.18170000
opls_145-517    C    0.73360005    0.51900000    0.10350000    0.16200000
opls_700-518    C    0.74839995    0.46349986    0.14219990    0.05900000
opls_543-519    C    0.92570010    0.28180006    0.38519990    0.14480000
opls_507-520    C    0.97139995    0.33309997    0.38580010    0.15540000
opls_716-521    C    0.98250000    0.36990003    0.38600000    -0.17820000
opls_716-522    C    0.89270010    0.26950014    0.38469990    -0.21080000
opls_700-523    C    0.93550000    0.32170008    0.38550000    -0.13970000
opls_700-524    C    0.90610005    0.35290003    0.38519990    0.05880000
opls_145-525    C    0.85100000    0.40619994    0.38469990    -0.06350000
opls_148-526    C    0.75510005    0.58200000    0.12230010    -0.49240000
opls_148-527    C    0.74570010    0.42200000    0.14709995    -0.49370000
opls_750-528    N    0.71779990    0.97319994    0.70150000    -0.28360000
opls_750-529    N    0.78029990    0.03709997    0.57059995    -0.28500000
opls_542-530    N    0.55429990    0.75000000    0.88550000    -0.34330000
opls_542-531    N    0.50000000    0.81080006    0.88559995    -0.36140000
opls_750-532    N    0.28220010    0.52680006    0.70150000    -0.28350000
opls_750-533    N    0.21970010    0.46290003    0.57059995    -0.28500000
opls_542-534    N    0.44570010    0.75000000    0.88550000    -0.34330000
opls_542-535    N    0.50000000    0.68919994    0.88559995    -0.36150000
opls_750-536    N    0.28220010    0.47319994    0.29850000    -0.28360000
opls_750-537    N    0.21970010    0.53709997    0.42940005    -0.28500000
opls_542-538    N    0.44570010    0.25000000    0.11450000    -0.34330000
opls_542-539    N    0.50000000    0.31080006    0.11440005    -0.36140000
opls_750-540    N    0.71779990    0.02680006    0.29850000    -0.28340000
opls_750-541    N    0.78029990    0.96290003    0.42940005    -0.28490000
opls_542-542    N    0.55429990    0.25000000    0.11450000    -0.34320000
opls_542-543    N    0.50000000    0.18919994    0.11440005    -0.36130000
opls_750-544    N    0.28220010    0.02680006    0.29850000    -0.28360000
opls_750-545    N    0.21970010    0.96290003    0.42940005    -0.28490000
opls_750-546    N    0.71779990    0.47319994    0.29850000    -0.28360000
opls_750-547    N    0.78029990    0.53709997    0.42940005    -0.28500000
opls_750-548    N    0.71779990    0.52680006    0.70150000    -0.28350000
opls_750-549    N    0.78029990    0.46290003    0.57059995    -0.28500000
opls_750-550    N    0.28220010    0.97319994    0.70150000    -0.28350000
opls_750-551    N    0.21970010    0.03709997    0.57059995    -0.28500000
opls_750-552    N    0.21779990    0.47319994    0.20150000    -0.28360000
opls_750-553    N    0.28029990    0.53709997    0.07059995    -0.28500000
opls_542-554    N    0.05429990    0.25000000    0.38550000    -0.34320000
opls_542-555    N    0.00000000    0.31080006    0.38559995    -0.36140000
opls_750-556    N    0.78220010    0.02680006    0.20150000    -0.28360000
opls_750-557    N    0.71970010    0.96290003    0.07059995    -0.28500000
opls_542-558    N    0.94570010    0.25000000    0.38550000    -0.34320000
opls_542-559    N    0.00000000    0.18919994    0.38559995    -0.36150000
opls_750-560    N    0.78220010    0.97319994    0.79850000    -0.28340000
opls_750-561    N    0.71970010    0.03709997    0.92940005    -0.28500000
opls_542-562    N    0.94570010    0.75000000    0.61450000    -0.34330000
opls_542-563    N    0.00000000    0.81080006    0.61440005    -0.36150000
opls_750-564    N    0.21779990    0.52680006    0.79850000    -0.28360000
opls_750-565    N    0.28029990    0.46290003    0.92940005    -0.28500000
opls_542-566    N    0.05429990    0.75000000    0.61450000    -0.34330000
opls_542-567    N    0.00000000    0.68919994    0.61440005    -0.36150000
opls_750-568    N    0.78220010    0.52680006    0.79850000    -0.28360000
opls_750-569    N    0.71970010    0.46290003    0.92940005    -0.28490000
opls_750-570    N    0.21779990    0.97319994    0.79850000    -0.28360000
opls_750-571    N    0.28029990    0.03709997    0.92940005    -0.28500000
opls_750-572    N    0.21779990    0.02680006    0.20150000    -0.28350000
opls_750-573    N    0.28029990    0.96290003    0.07059995    -0.28500000
opls_750-574    N    0.78220010    0.47319994    0.20150000    -0.28360000
opls_750-575    N    0.71970010    0.53709997    0.07059995    -0.28490000
opls_146-576    H    0.60020010    0.85419994    0.82869990    0.10870000
opls_146-577    H    0.64260005    0.85700000    0.78509995    0.10140000
opls_146-578    H    0.70300000    0.90260011    0.94119990    0.10390000
opls_146-579    H    0.72039995    0.04290003    0.67750000    0.10210000
opls_144-580    H    0.70229990    0.91870008    0.69290005    0.09050000
opls_146-581    H    0.59670010    0.86029992    0.94190005    0.10140000
opls_146-582    H    0.69860005    0.98060011    0.77840005    0.10300000
opls_146-583    H    0.62729990    0.95950014    0.02859995    0.10050000
opls_146-584    H    0.78060005    0.96209997    0.59309995    0.10570000
opls_547-585    H    0.53320010    0.89449986    0.88619990    0.10540000
opls_547-586    H    0.62950000    0.78680006    0.88440005    0.10770000
opls_146-587    H    0.66939995    0.92590003    0.88480010    0.07760000
opls_702-588    H    0.73039995    0.09580006    0.64359995    0.09930000
opls_702-589    H    0.73170010    0.08719994    0.59719990    0.15140000
opls_702-590    H    0.77010005    0.09500000    0.62130010    0.15270000
opls_702-591    H    0.72960005    0.90890003    0.64180010    0.15210000
opls_702-592    H    0.76260005    0.91539989    0.67409995    0.15200000
opls_702-593    H    0.77260005    0.90950014    0.62859995    0.15160000
opls_144-594    H    0.82310005    0.00670008    0.55950000    0.10640000
opls_146-595    H    0.72679990    0.93170008    0.99459995    0.10050000
opls_146-596    H    0.66939995    0.87709997    0.73069990    0.10430000
opls_146-597    H    0.60360005    0.92900000    0.97640005    0.09980000
opls_146-598    H    0.67129990    0.96070008    0.83340005    0.10680000
opls_545-599    H    0.52839995    0.75000000    0.88609995    0.23670000
opls_146-600    H    0.39979990    0.64580006    0.82869990    0.10880000
opls_146-601    H    0.35739995    0.64300000    0.78509995    0.10140000
opls_146-602    H    0.29700000    0.59739989    0.94119990    0.10380000
opls_146-603    H    0.27960005    0.45709997    0.67750000    0.10210000
opls_144-604    H    0.29770010    0.58129992    0.69290005    0.09050000
opls_146-605    H    0.40329990    0.63970008    0.94190005    0.10140000
opls_146-606    H    0.30139995    0.51939989    0.77840005    0.10310000
opls_146-607    H    0.37270010    0.54050014    0.02859995    0.10050000
opls_146-608    H    0.21939995    0.53790003    0.59309995    0.10570000
opls_547-609    H    0.46679990    0.60549986    0.88619990    0.10540000
opls_547-610    H    0.37050000    0.71319994    0.88440005    0.10770000
opls_146-611    H    0.33060005    0.57409997    0.88480010    0.07760000
opls_702-612    H    0.26960005    0.40419994    0.64359995    0.09930000
opls_702-613    H    0.26829990    0.41280006    0.59719990    0.15140000
opls_702-614    H    0.22989995    0.40500000    0.62130010    0.15260000
opls_702-615    H    0.27039995    0.59109997    0.64180010    0.15200000
opls_702-616    H    0.23739995    0.58460011    0.67409995    0.15200000
opls_702-617    H    0.22739995    0.59049986    0.62859995    0.15170000
opls_144-618    H    0.17689995    0.49329992    0.55950000    0.10640000
opls_146-619    H    0.27320010    0.56829992    0.99459995    0.10050000
opls_146-620    H    0.33060005    0.62290003    0.73069990    0.10430000
opls_146-621    H    0.39639995    0.57100000    0.97640005    0.09980000
opls_146-622    H    0.32870010    0.53929992    0.83340005    0.10680000
opls_545-623    H    0.47160005    0.75000000    0.88609995    0.23690000
opls_146-624    H    0.39979990    0.35419994    0.17130010    0.10870000
opls_146-625    H    0.35739995    0.35700000    0.21490005    0.10140000
opls_146-626    H    0.29700000    0.40260011    0.05880010    0.10380000
opls_146-627    H    0.27960005    0.54290003    0.32250000    0.10210000
opls_144-628    H    0.29770010    0.41870008    0.30709995    0.09050000
opls_146-629    H    0.40329990    0.36029992    0.05809995    0.10140000
opls_146-630    H    0.30139995    0.48060011    0.22159995    0.10300000
opls_146-631    H    0.37270010    0.45950014    0.97140005    0.10050000
opls_146-632    H    0.21939995    0.46209997    0.40690005    0.10570000
opls_547-633    H    0.46679990    0.39450014    0.11380010    0.10540000
opls_547-634    H    0.37050000    0.28680006    0.11559995    0.10770000
opls_146-635    H    0.33060005    0.42590003    0.11519990    0.07760000
opls_702-636    H    0.26960005    0.59580006    0.35640005    0.09930000
opls_702-637    H    0.26829990    0.58719994    0.40280010    0.15140000
opls_702-638    H    0.22989995    0.59500000    0.37869990    0.15260000
opls_702-639    H    0.27039995    0.40890003    0.35819990    0.15200000
opls_702-640    H    0.23739995    0.41539989    0.32590005    0.15200000
opls_702-641    H    0.22739995    0.40949986    0.37140005    0.15160000
opls_144-642    H    0.17689995    0.50670008    0.44050000    0.10650000
opls_146-643    H    0.27320010    0.43170008    0.00540005    0.10050000
opls_146-644    H    0.33060005    0.37709997    0.26930010    0.10430000
opls_146-645    H    0.39639995    0.42900000    0.02359995    0.09980000
opls_146-646    H    0.32870010    0.46070008    0.16659995    0.10680000
opls_545-647    H    0.47160005    0.25000000    0.11390005    0.23670000
opls_146-648    H    0.60020010    0.14580006    0.17130010    0.10870000
opls_146-649    H    0.64260005    0.14300000    0.21490005    0.10140000
opls_146-650    H    0.70300000    0.09739989    0.05880010    0.10380000
opls_146-651    H    0.72039995    0.95709997    0.32250000    0.10210000
opls_144-652    H    0.70229990    0.08129992    0.30709995    0.09050000
opls_146-653    H    0.59670010    0.13970008    0.05809995    0.10140000
opls_146-654    H    0.69860005    0.01939989    0.22159995    0.10300000
opls_146-655    H    0.62729990    0.04049986    0.97140005    0.10050000
opls_146-656    H    0.78060005    0.03790003    0.40690005    0.10570000
opls_547-657    H    0.53320010    0.10549986    0.11380010    0.10540000
opls_547-658    H    0.62950000    0.21319994    0.11559995    0.10770000
opls_146-659    H    0.66939995    0.07409997    0.11519990    0.07760000
opls_702-660    H    0.73039995    0.90419994    0.35640005    0.09930000
opls_702-661    H    0.73170010    0.91280006    0.40280010    0.15140000
opls_702-662    H    0.77010005    0.90500000    0.37869990    0.15260000
opls_702-663    H    0.72960005    0.09109997    0.35819990    0.15210000
opls_702-664    H    0.76260005    0.08460011    0.32590005    0.15200000
opls_702-665    H    0.77260005    0.09049986    0.37140005    0.15150000
opls_144-666    H    0.82310005    0.99329992    0.44050000    0.10650000
opls_146-667    H    0.72679990    0.06829992    0.00540005    0.10050000
opls_146-668    H    0.66939995    0.12290003    0.26930010    0.10430000
opls_146-669    H    0.60360005    0.07100000    0.02359995    0.09980000
opls_146-670    H    0.67129990    0.03929992    0.16659995    0.10680000
opls_545-671    H    0.52839995    0.25000000    0.11390005    0.23670000
opls_146-672    H    0.39979990    0.14580006    0.17130010    0.10870000
opls_146-673    H    0.35739995    0.14300000    0.21490005    0.10140000
opls_146-674    H    0.29700000    0.09739989    0.05880010    0.10380000
opls_146-675    H    0.27960005    0.95709997    0.32250000    0.10210000
opls_144-676    H    0.29770010    0.08129992    0.30709995    0.09050000
opls_146-677    H    0.40329990    0.13970008    0.05809995    0.10140000
opls_146-678    H    0.30139995    0.01939989    0.22159995    0.10300000
opls_146-679    H    0.37270010    0.04049986    0.97140005    0.10050000
opls_146-680    H    0.21939995    0.03790003    0.40690005    0.10570000
opls_547-681    H    0.46679990    0.10549986    0.11380010    0.10540000
opls_547-682    H    0.37050000    0.21319994    0.11559995    0.10770000
opls_146-683    H    0.33060005    0.07409997    0.11519990    0.07760000
opls_702-684    H    0.26960005    0.90419994    0.35640005    0.09930000
opls_702-685    H    0.26829990    0.91280006    0.40280010    0.15140000
opls_702-686    H    0.22989995    0.90500000    0.37869990    0.15260000
opls_702-687    H    0.27039995    0.09109997    0.35819990    0.15200000
opls_702-688    H    0.23739995    0.08460011    0.32590005    0.15200000
opls_702-689    H    0.22739995    0.09049986    0.37140005    0.15150000
opls_144-690    H    0.17689995    0.99329992    0.44050000    0.10640000
opls_146-691    H    0.27320010    0.06829992    0.00540005    0.10050000
opls_146-692    H    0.33060005    0.12290003    0.26930010    0.10430000
opls_146-693    H    0.39639995    0.07100000    0.02359995    0.09980000
opls_146-694    H    0.32870010    0.03929992    0.16659995    0.10680000
opls_146-695    H    0.60020010    0.35419994    0.17130010    0.10870000
opls_146-696    H    0.64260005    0.35700000    0.21490005    0.10140000
opls_146-697    H    0.70300000    0.40260011    0.05880010    0.10380000
opls_146-698    H    0.72039995    0.54290003    0.32250000    0.10210000
opls_144-699    H    0.70229990    0.41870008    0.30709995    0.09050000
opls_146-700    H    0.59670010    0.36029992    0.05809995    0.10140000
opls_146-701    H    0.69860005    0.48060011    0.22159995    0.10300000
opls_146-702    H    0.62729990    0.45950014    0.97140005    0.10050000
opls_146-703    H    0.78060005    0.46209997    0.40690005    0.10570000
opls_547-704    H    0.53320010    0.39450014    0.11380010    0.10540000
opls_547-705    H    0.62950000    0.28680006    0.11559995    0.10780000
opls_146-706    H    0.66939995    0.42590003    0.11519990    0.07760000
opls_702-707    H    0.73039995    0.59580006    0.35640005    0.09930000
opls_702-708    H    0.73170010    0.58719994    0.40280010    0.15140000
opls_702-709    H    0.77010005    0.59500000    0.37869990    0.15260000
opls_702-710    H    0.72960005    0.40890003    0.35819990    0.15210000
opls_702-711    H    0.76260005    0.41539989    0.32590005    0.15210000
opls_702-712    H    0.77260005    0.40949986    0.37140005    0.15150000
opls_144-713    H    0.82310005    0.50670008    0.44050000    0.10640000
opls_146-714    H    0.72679990    0.43170008    0.00540005    0.10050000
opls_146-715    H    0.66939995    0.37709997    0.26930010    0.10430000
opls_146-716    H    0.60360005    0.42900000    0.02359995    0.09980000
opls_146-717    H    0.67129990    0.46070008    0.16659995    0.10680000
opls_146-718    H    0.60020010    0.64580006    0.82869990    0.10870000
opls_146-719    H    0.64260005    0.64300000    0.78509995    0.10140000
opls_146-720    H    0.70300000    0.59739989    0.94119990    0.10380000
opls_146-721    H    0.72039995    0.45709997    0.67750000    0.10210000
opls_144-722    H    0.70229990    0.58129992    0.69290005    0.09050000
opls_146-723    H    0.59670010    0.63970008    0.94190005    0.10140000
opls_146-724    H    0.69860005    0.51939989    0.77840005    0.10300000
opls_146-725    H    0.62729990    0.54050014    0.02859995    0.10060000
opls_146-726    H    0.78060005    0.53790003    0.59309995    0.10570000
opls_547-727    H    0.53320010    0.60549986    0.88619990    0.10540000
opls_547-728    H    0.62950000    0.71319994    0.88440005    0.10770000
opls_146-729    H    0.66939995    0.57409997    0.88480010    0.07760000
opls_702-730    H    0.73039995    0.40419994    0.64359995    0.09930000
opls_702-731    H    0.73170010    0.41280006    0.59719990    0.15140000
opls_702-732    H    0.77010005    0.40500000    0.62130010    0.15260000
opls_702-733    H    0.72960005    0.59109997    0.64180010    0.15210000
opls_702-734    H    0.76260005    0.58460011    0.67409995    0.15200000
opls_702-735    H    0.77260005    0.59049986    0.62859995    0.15150000
opls_144-736    H    0.82310005    0.49329992    0.55950000    0.10640000
opls_146-737    H    0.72679990    0.56829992    0.99459995    0.10050000
opls_146-738    H    0.66939995    0.62290003    0.73069990    0.10430000
opls_146-739    H    0.60360005    0.57100000    0.97640005    0.09980000
opls_146-740    H    0.67129990    0.53929992    0.83340005    0.10680000
opls_146-741    H    0.39979990    0.85419994    0.82869990    0.10870000
opls_146-742    H    0.35739995    0.85700000    0.78509995    0.10140000
opls_146-743    H    0.29700000    0.90260011    0.94119990    0.10380000
opls_146-744    H    0.27960005    0.04290003    0.67750000    0.10210000
opls_144-745    H    0.29770010    0.91870008    0.69290005    0.09050000
opls_146-746    H    0.40329990    0.86029992    0.94190005    0.10140000
opls_146-747    H    0.30139995    0.98060011    0.77840005    0.10300000
opls_146-748    H    0.37270010    0.95950014    0.02859995    0.10050000
opls_146-749    H    0.21939995    0.96209997    0.59309995    0.10580000
opls_547-750    H    0.46679990    0.89449986    0.88619990    0.10540000
opls_547-751    H    0.37050000    0.78680006    0.88440005    0.10770000
opls_146-752    H    0.33060005    0.92590003    0.88480010    0.07760000
opls_702-753    H    0.26960005    0.09580006    0.64359995    0.09930000
opls_702-754    H    0.26829990    0.08719994    0.59719990    0.15140000
opls_702-755    H    0.22989995    0.09500000    0.62130010    0.15260000
opls_702-756    H    0.27039995    0.90890003    0.64180010    0.15200000
opls_702-757    H    0.23739995    0.91539989    0.67409995    0.15210000
opls_702-758    H    0.22739995    0.90950014    0.62859995    0.15150000
opls_144-759    H    0.17689995    0.00670008    0.55950000    0.10640000
opls_146-760    H    0.27320010    0.93170008    0.99459995    0.10050000
opls_146-761    H    0.33060005    0.87709997    0.73069990    0.10430000
opls_146-762    H    0.39639995    0.92900000    0.97640005    0.09980000
opls_146-763    H    0.32870010    0.96070008    0.83340005    0.10680000
opls_146-764    H    0.10020010    0.35419994    0.32869990    0.10870000
opls_146-765    H    0.14260005    0.35700000    0.28509995    0.10140000
opls_146-766    H    0.20300000    0.40260011    0.44119990    0.10390000
opls_146-767    H    0.22039995    0.54290003    0.17750000    0.10210000
opls_144-768    H    0.20229990    0.41870008    0.19290005    0.09050000
opls_146-769    H    0.09670010    0.36029992    0.44190005    0.10140000
opls_146-770    H    0.19860005    0.48060011    0.27840005    0.10310000
opls_146-771    H    0.12729990    0.45950014    0.52859995    0.10050000
opls_146-772    H    0.28060005    0.46209997    0.09309995    0.10570000
opls_547-773    H    0.03320010    0.39450014    0.38619990    0.10540000
opls_547-774    H    0.12950000    0.28680006    0.38440005    0.10770000
opls_146-775    H    0.16939995    0.42590003    0.38480010    0.07760000
opls_702-776    H    0.23039995    0.59580006    0.14359995    0.09930000
opls_702-777    H    0.23170010    0.58719994    0.09719990    0.15150000
opls_702-778    H    0.27010005    0.59500000    0.12130010    0.15260000
opls_702-779    H    0.22960005    0.40890003    0.14180010    0.15200000
opls_702-780    H    0.26260005    0.41539989    0.17409995    0.15200000
opls_702-781    H    0.27260005    0.40949986    0.12859995    0.15150000
opls_144-782    H    0.32310005    0.50670008    0.05950000    0.10640000
opls_146-783    H    0.22679990    0.43170008    0.49459995    0.10050000
opls_146-784    H    0.16939995    0.37709997    0.23069990    0.10430000
opls_146-785    H    0.10360005    0.42900000    0.47640005    0.09990000
opls_146-786    H    0.17129990    0.46070008    0.33340005    0.10680000
opls_545-787    H    0.02839995    0.25000000    0.38609995    0.23670000
opls_146-788    H    0.89979990    0.14580006    0.32869990    0.10870000
opls_146-789    H    0.85739995    0.14300000    0.28509995    0.10140000
opls_146-790    H    0.79700000    0.09739989    0.44119990    0.10380000
opls_146-791    H    0.77960005    0.95709997    0.17750000    0.10210000
opls_144-792    H    0.79770010    0.08129992    0.19290005    0.09050000
opls_146-793    H    0.90329990    0.13970008    0.44190005    0.10140000
opls_146-794    H    0.80139995    0.01939989    0.27840005    0.10300000
opls_146-795    H    0.87270010    0.04049986    0.52859995    0.10050000
opls_146-796    H    0.71939995    0.03790003    0.09309995    0.10570000
opls_547-797    H    0.96679990    0.10549986    0.38619990    0.10540000
opls_547-798    H    0.87050000    0.21319994    0.38440005    0.10770000
opls_146-799    H    0.83060005    0.07409997    0.38480010    0.07760000
opls_702-800    H    0.76960005    0.90419994    0.14359995    0.09930000
opls_702-801    H    0.76829990    0.91280006    0.09719990    0.15140000
opls_702-802    H    0.72989995    0.90500000    0.12130010    0.15260000
opls_702-803    H    0.77039995    0.09109997    0.14180010    0.15200000
opls_702-804    H    0.73739995    0.08460011    0.17409995    0.15200000
opls_702-805    H    0.72739995    0.09049986    0.12859995    0.15150000
opls_144-806    H    0.67689995    0.99329992    0.05950000    0.10640000
opls_146-807    H    0.77320010    0.06829992    0.49459995    0.10050000
opls_146-808    H    0.83060005    0.12290003    0.23069990    0.10430000
opls_146-809    H    0.89639995    0.07100000    0.47640005    0.09980000
opls_146-810    H    0.82870010    0.03929992    0.33340005    0.10690000
opls_545-811    H    0.97160005    0.25000000    0.38609995    0.23670000
opls_146-812    H    0.89979990    0.85419994    0.67130010    0.10870000
opls_146-813    H    0.85739995    0.85700000    0.71490005    0.10140000
opls_146-814    H    0.79700000    0.90260011    0.55880010    0.10380000
opls_146-815    H    0.77960005    0.04290003    0.82250000    0.10210000
opls_144-816    H    0.79770010    0.91870008    0.80709995    0.09050000
opls_146-817    H    0.90329990    0.86029992    0.55809995    0.10140000
opls_146-818    H    0.80139995    0.98060011    0.72159995    0.10300000
opls_146-819    H    0.87270010    0.95950014    0.47140005    0.10050000
opls_146-820    H    0.71939995    0.96209997    0.90690005    0.10570000
opls_547-821    H    0.96679990    0.89449986    0.61380010    0.10540000
opls_547-822    H    0.87050000    0.78680006    0.61559995    0.10780000
opls_146-823    H    0.83060005    0.92590003    0.61519990    0.07770000
opls_702-824    H    0.76960005    0.09580006    0.85640005    0.09930000
opls_702-825    H    0.76829990    0.08719994    0.90280010    0.15140000
opls_702-826    H    0.72989995    0.09500000    0.87869990    0.15260000
opls_702-827    H    0.77039995    0.90890003    0.85819990    0.15200000
opls_702-828    H    0.73739995    0.91539989    0.82590005    0.15200000
opls_702-829    H    0.72739995    0.90950014    0.87140005    0.15150000
opls_144-830    H    0.67689995    0.00670008    0.94050000    0.10640000
opls_146-831    H    0.77320010    0.93170008    0.50540005    0.10050000
opls_146-832    H    0.83060005    0.87709997    0.76930010    0.10430000
opls_146-833    H    0.89639995    0.92900000    0.52359995    0.09990000
opls_146-834    H    0.82870010    0.96070008    0.66659995    0.10680000
opls_545-835    H    0.97160005    0.75000000    0.61390005    0.23670000
opls_146-836    H    0.10020010    0.64580006    0.67130010    0.10870000
opls_146-837    H    0.14260005    0.64300000    0.71490005    0.10140000
opls_146-838    H    0.20300000    0.59739989    0.55880010    0.10380000
opls_146-839    H    0.22039995    0.45709997    0.82250000    0.10210000
opls_144-840    H    0.20229990    0.58129992    0.80709995    0.09050000
opls_146-841    H    0.09670010    0.63970008    0.55809995    0.10140000
opls_146-842    H    0.19860005    0.51939989    0.72159995    0.10300000
opls_146-843    H    0.12729990    0.54050014    0.47140005    0.10050000
opls_146-844    H    0.28060005    0.53790003    0.90690005    0.10570000
opls_547-845    H    0.03320010    0.60549986    0.61380010    0.10540000
opls_547-846    H    0.12950000    0.71319994    0.61559995    0.10770000
opls_146-847    H    0.16939995    0.57409997    0.61519990    0.07760000
opls_702-848    H    0.23039995    0.40419994    0.85640005    0.09930000
opls_702-849    H    0.23170010    0.41280006    0.90280010    0.15140000
opls_702-850    H    0.27010005    0.40500000    0.87869990    0.15260000
opls_702-851    H    0.22960005    0.59109997    0.85819990    0.15200000
opls_702-852    H    0.26260005    0.58460011    0.82590005    0.15200000
opls_702-853    H    0.27260005    0.59049986    0.87140005    0.15150000
opls_144-854    H    0.32310005    0.49329992    0.94050000    0.10640000
opls_146-855    H    0.22679990    0.56829992    0.50540005    0.10050000
opls_146-856    H    0.16939995    0.62290003    0.76930010    0.10430000
opls_146-857    H    0.10360005    0.57100000    0.52359995    0.09980000
opls_146-858    H    0.17129990    0.53929992    0.66659995    0.10680000
opls_545-859    H    0.02839995    0.75000000    0.61390005    0.23670000
opls_146-860    H    0.89979990    0.64580006    0.67130010    0.10870000
opls_146-861    H    0.85739995    0.64300000    0.71490005    0.10140000
opls_146-862    H    0.79700000    0.59739989    0.55880010    0.10380000
opls_146-863    H    0.77960005    0.45709997    0.82250000    0.10210000
opls_144-864    H    0.79770010    0.58129992    0.80709995    0.09050000
opls_146-865    H    0.90329990    0.63970008    0.55809995    0.10140000
opls_146-866    H    0.80139995    0.51939989    0.72159995    0.10300000
opls_146-867    H    0.87270010    0.54050014    0.47140005    0.10050000
opls_146-868    H    0.71939995    0.53790003    0.90690005    0.10570000
opls_547-869    H    0.96679990    0.60549986    0.61380010    0.10540000
opls_547-870    H    0.87050000    0.71319994    0.61559995    0.10780000
opls_146-871    H    0.83060005    0.57409997    0.61519990    0.07760000
opls_702-872    H    0.76960005    0.40419994    0.85640005    0.09930000
opls_702-873    H    0.76829990    0.41280006    0.90280010    0.15140000
opls_702-874    H    0.72989995    0.40500000    0.87869990    0.15270000
opls_702-875    H    0.77039995    0.59109997    0.85819990    0.15200000
opls_702-876    H    0.73739995    0.58460011    0.82590005    0.15200000
opls_702-877    H    0.72739995    0.59049986    0.87140005    0.15150000
opls_144-878    H    0.67689995    0.49329992    0.94050000    0.10640000
opls_146-879    H    0.77320010    0.56829992    0.50540005    0.10050000
opls_146-880    H    0.83060005    0.62290003    0.76930010    0.10430000
opls_146-881    H    0.89639995    0.57100000    0.52359995    0.09980000
opls_146-882    H    0.82870010    0.53929992    0.66659995    0.10680000
opls_146-883    H    0.10020010    0.85419994    0.67130010    0.10870000
opls_146-884    H    0.14260005    0.85700000    0.71490005    0.10140000
opls_146-885    H    0.20300000    0.90260011    0.55880010    0.10380000
opls_146-886    H    0.22039995    0.04290003    0.82250000    0.10210000
opls_144-887    H    0.20229990    0.91870008    0.80709995    0.09050000
opls_146-888    H    0.09670010    0.86029992    0.55809995    0.10140000
opls_146-889    H    0.19860005    0.98060011    0.72159995    0.10300000
opls_146-890    H    0.12729990    0.95950014    0.47140005    0.10060000
opls_146-891    H    0.28060005    0.96209997    0.90690005    0.10580000
opls_547-892    H    0.03320010    0.89449986    0.61380010    0.10540000
opls_547-893    H    0.12950000    0.78680006    0.61559995    0.10770000
opls_146-894    H    0.16939995    0.92590003    0.61519990    0.07760000
opls_702-895    H    0.23039995    0.09580006    0.85640005    0.09930000
opls_702-896    H    0.23170010    0.08719994    0.90280010    0.15140000
opls_702-897    H    0.27010005    0.09500000    0.87869990    0.15260000
opls_702-898    H    0.22960005    0.90890003    0.85819990    0.15200000
opls_702-899    H    0.26260005    0.91539989    0.82590005    0.15210000
opls_702-900    H    0.27260005    0.90950014    0.87140005    0.15150000
opls_144-901    H    0.32310005    0.00670008    0.94050000    0.10640000
opls_146-902    H    0.22679990    0.93170008    0.50540005    0.10050000
opls_146-903    H    0.16939995    0.87709997    0.76930010    0.10430000
opls_146-904    H    0.10360005    0.92900000    0.52359995    0.09980000
opls_146-905    H    0.17129990    0.96070008    0.66659995    0.10680000
opls_146-906    H    0.10020010    0.14580006    0.32869990    0.10870000
opls_146-907    H    0.14260005    0.14300000    0.28509995    0.10140000
opls_146-908    H    0.20300000    0.09739989    0.44119990    0.10380000
opls_146-909    H    0.22039995    0.95709997    0.17750000    0.10210000
opls_144-910    H    0.20229990    0.08129992    0.19290005    0.09060000
opls_146-911    H    0.09670010    0.13970008    0.44190005    0.10140000
opls_146-912    H    0.19860005    0.01939989    0.27840005    0.10310000
opls_146-913    H    0.12729990    0.04049986    0.52859995    0.10050000
opls_146-914    H    0.28060005    0.03790003    0.09309995    0.10570000
opls_547-915    H    0.03320010    0.10549986    0.38619990    0.10540000
opls_547-916    H    0.12950000    0.21319994    0.38440005    0.10770000
opls_146-917    H    0.16939995    0.07409997    0.38480010    0.07760000
opls_702-918    H    0.23039995    0.90419994    0.14359995    0.09930000
opls_702-919    H    0.23170010    0.91280006    0.09719990    0.15140000
opls_702-920    H    0.27010005    0.90500000    0.12130010    0.15260000
opls_702-921    H    0.22960005    0.09109997    0.14180010    0.15200000
opls_702-922    H    0.26260005    0.08460011    0.17409995    0.15200000
opls_702-923    H    0.27260005    0.09049986    0.12859995    0.15150000
opls_144-924    H    0.32310005    0.99329992    0.05950000    0.10640000
opls_146-925    H    0.22679990    0.06829992    0.49459995    0.10070000
opls_146-926    H    0.16939995    0.12290003    0.23069990    0.10430000
opls_146-927    H    0.10360005    0.07100000    0.47640005    0.09980000
opls_146-928    H    0.17129990    0.03929992    0.33340005    0.10690000
opls_146-929    H    0.89979990    0.35419994    0.32869990    0.10870000
opls_146-930    H    0.85739995    0.35700000    0.28509995    0.10140000
opls_146-931    H    0.79700000    0.40260011    0.44119990    0.10380000
opls_146-932    H    0.77960005    0.54290003    0.17750000    0.10210000
opls_144-933    H    0.79770010    0.41870008    0.19290005    0.09050000
opls_146-934    H    0.90329990    0.36029992    0.44190005    0.10140000
opls_146-935    H    0.80139995    0.48060011    0.27840005    0.10300000
opls_146-936    H    0.87270010    0.45950014    0.52859995    0.10050000
opls_146-937    H    0.71939995    0.46209997    0.09309995    0.10570000
opls_547-938    H    0.96679990    0.39450014    0.38619990    0.10540000
opls_547-939    H    0.87050000    0.28680006    0.38440005    0.10780000
opls_146-940    H    0.83060005    0.42590003    0.38480010    0.07760000
opls_702-941    H    0.76960005    0.59580006    0.14359995    0.09930000
opls_702-942    H    0.76829990    0.58719994    0.09719990    0.15140000
opls_702-943    H    0.72989995    0.59500000    0.12130010    0.15260000
opls_702-944    H    0.77039995    0.40890003    0.14180010    0.15200000
opls_702-945    H    0.73739995    0.41539989    0.17409995    0.15200000
opls_702-946    H    0.72739995    0.40949986    0.12859995    0.15150000
opls_144-947    H    0.67689995    0.50670008    0.05950000    0.10640000
opls_146-948    H    0.77320010    0.43170008    0.49459995    0.10050000
opls_146-949    H    0.83060005    0.37709997    0.23069990    0.10430000
opls_146-950    H    0.89639995    0.42900000    0.47640005    0.09980000
opls_146-951    H    0.82870010    0.46070008    0.33340005    0.10680000
