#======================================================================
# Crystal Data Generated By AuToFF
#----------------------------------------------------------------------

data_AuToFF_phase_1

_cell_length_a                         64.5103
_cell_length_b                         64.5103
_cell_length_c                         31.1318
_cell_angle_alpha                      90.00
_cell_angle_beta                       90.00
_cell_angle_gamma                      90.00
_symmetry_space_group_name_H-M_alt     'P 1'
_symmetry_space_group_IT_number        1

loop_
_space_group_symop_operation_xyz
   'x, y, z'

loop_
   _atom_site_label
   _atom_site_type_symbol
   _atom_site_fract_x
   _atom_site_fract_y
   _atom_site_fract_z
   _atom_site_charge
opls_145-0    C    0.41330997    0.49510993    0.53894988    -0.11960000
opls_145-1    C    0.39167993    0.49392004    0.53892001    -0.17210000
opls_145-2    C    0.31373006    0.50535000    0.46132989    -0.11970000
opls_700-3    C    0.05345007    0.49555993    0.11136009    0.07010000
opls_145-4    C    0.06355993    0.51348994    0.12564002    -0.11980000
opls_145-5    C    0.07803002    0.51232005    0.15893010    -0.17090000
opls_145-6    C    0.08248001    0.49331998    0.17866008    0.19000000
opls_145-7    C    0.07268002    0.47523000    0.16342004    -0.17120000
opls_145-8    C    0.05822993    0.47640997    0.13009013    -0.11870000
opls_142-9    C    0.09960998    0.47826998    0.24132013    0.06900000
opls_700-10    C    0.11448001    0.48046002    0.27708003    0.06060000
opls_145-11    C    0.11583995    0.46474997    0.30804001    -0.11900000
opls_145-12    C    0.12917999    0.46678995    0.34311990    -0.12600000
opls_700-13    C    0.14150004    0.48461005    0.34792013    0.06430000
opls_145-14    C    0.14036999    0.50021004    0.31646998    -0.12850000
opls_145-15    C    0.12698995    0.49817006    0.28141001    -0.12820000
opls_700-16    C    0.15500998    0.48714004    0.38619001    0.06810000
opls_145-17    C    0.16602000    0.47015996    0.40303998    -0.12950000
opls_145-18    C    0.17801002    0.47240007    0.44012007    -0.16560000
opls_916-19    C    0.17922998    0.49161002    0.46082013    0.16790000
opls_145-20    C    0.16858006    0.50864994    0.44393996    -0.17320000
opls_145-21    C    0.15655004    0.50646005    0.40690998    -0.12930000
opls_145-22    C    0.29216993    0.50335993    0.53881016    -0.13220000
opls_145-23    C    0.24583005    0.49902000    0.53869998    -0.13080000
opls_145-24    C    0.22428000    0.49692995    0.53863991    -0.17170000
opls_543-25    C    0.50137993    0.01661006    0.90969009    0.20270000
opls_543-26    C    0.50352998    0.04348995    0.03452997    0.19980000
opls_716-27    C    0.50527993    0.06398994    0.02184005    -0.20170000
opls_716-28    C    0.01050003    0.49915006    0.86707001    -0.20170000
opls_700-29    C    0.96268999    0.50307005    0.07752009    -0.13050000
opls_700-30    C    0.49702001    0.55283993    0.50000000    -0.06630000
opls_543-31    C    0.47858001    0.54148004    0.50000000    0.19980000
opls_716-32    C    0.45916001    0.55061998    0.50000000    -0.20170000
opls_700-33    C    0.42420001    0.49572998    0.50000000    0.06450000
opls_145-34    C    0.38081996    0.49341004    0.50000000    0.19180000
opls_700-35    C    0.28069998    0.50229002    0.50000000    0.06210000
opls_700-36    C    0.25728000    0.50007999    0.50000000    0.06120000
opls_916-37    C    0.21314007    0.49572998    0.50000000    0.16960000
opls_543-38    C    0.45637007    0.51661998    0.50000000    0.19980000
opls_716-39    C    0.44511993    0.53490001    0.50000000    -0.20170000
opls_142-40    C    0.34714999    0.50842997    0.50000000    0.08110000
opls_700-41    C    0.32455995    0.50631000    0.50000000    0.06080000
opls_145-42    C    0.58669003    0.50489007    0.53894988    -0.11960000
opls_145-43    C    0.60832007    0.50607996    0.53892001    -0.17210000
opls_145-44    C    0.68626994    0.49465000    0.46132989    -0.11970000
opls_700-45    C    0.94654993    0.50444007    0.11136009    0.07010000
opls_145-46    C    0.93644007    0.48651006    0.12564002    -0.11970000
opls_145-47    C    0.92196998    0.48767995    0.15893010    -0.17090000
opls_145-48    C    0.91751999    0.50668002    0.17866008    0.19000000
opls_145-49    C    0.92731998    0.52477000    0.16342004    -0.17120000
opls_145-50    C    0.94177007    0.52359003    0.13009013    -0.11870000
opls_142-51    C    0.90039002    0.52173002    0.24132013    0.06900000
opls_700-52    C    0.88551999    0.51953998    0.27708003    0.06060000
opls_145-53    C    0.88416005    0.53525003    0.30804001    -0.11910000
opls_145-54    C    0.87082001    0.53321005    0.34311990    -0.12600000
opls_700-55    C    0.85849996    0.51538995    0.34792013    0.06430000
opls_145-56    C    0.85963001    0.49978996    0.31646998    -0.12850000
opls_145-57    C    0.87301005    0.50182994    0.28141001    -0.12820000
opls_700-58    C    0.84499002    0.51285996    0.38619001    0.06810000
opls_145-59    C    0.83398000    0.52984004    0.40303998    -0.12950000
opls_145-60    C    0.82198998    0.52759993    0.44012007    -0.16560000
opls_916-61    C    0.82077002    0.50838998    0.46082013    0.16790000
opls_145-62    C    0.83141994    0.49135006    0.44393996    -0.17320000
opls_145-63    C    0.84344996    0.49353995    0.40690998    -0.12920000
opls_145-64    C    0.70783007    0.49664007    0.53881016    -0.13220000
opls_145-65    C    0.75416995    0.50098000    0.53869998    -0.13080000
opls_145-66    C    0.77572000    0.50307005    0.53863991    -0.17170000
opls_543-67    C    0.49862007    0.98338994    0.90969009    0.20270000
opls_543-68    C    0.49647002    0.95651005    0.03452997    0.19980000
opls_716-69    C    0.49472007    0.93601006    0.02184005    -0.20170000
opls_716-70    C    0.98949997    0.50084994    0.86707001    -0.20170000
opls_700-71    C    0.03731001    0.49692995    0.07752009    -0.13050000
opls_700-72    C    0.50297999    0.44716007    0.50000000    -0.06630000
opls_543-73    C    0.52141999    0.45851996    0.50000000    0.19980000
opls_716-74    C    0.54083999    0.44938002    0.50000000    -0.20160000
opls_700-75    C    0.57579999    0.50427002    0.50000000    0.06450000
opls_145-76    C    0.61918004    0.50658996    0.50000000    0.19180000
opls_700-77    C    0.71930002    0.49770998    0.50000000    0.06210000
opls_700-78    C    0.74272000    0.49992001    0.50000000    0.06120000
opls_916-79    C    0.78685993    0.50427002    0.50000000    0.16950000
opls_543-80    C    0.54362993    0.48338002    0.50000000    0.19980000
opls_716-81    C    0.55488007    0.46509999    0.50000000    -0.20170000
opls_142-82    C    0.65285001    0.49157003    0.50000000    0.08110000
opls_700-83    C    0.67544005    0.49369000    0.50000000    0.06080000
opls_145-84    C    0.50489007    0.41330997    0.53894988    -0.11960000
opls_145-85    C    0.50607996    0.39167993    0.53892001    -0.17210000
opls_145-86    C    0.49465000    0.31373006    0.46132989    -0.11970000
opls_700-87    C    0.50444007    0.05345007    0.11136009    0.07010000
opls_145-88    C    0.48651006    0.06355993    0.12564002    -0.11980000
opls_145-89    C    0.48767995    0.07803002    0.15893010    -0.17090000
opls_145-90    C    0.50668002    0.08248001    0.17866008    0.19000000
opls_145-91    C    0.52477000    0.07268002    0.16342004    -0.17120000
opls_145-92    C    0.52359003    0.05822993    0.13009013    -0.11870000
opls_142-93    C    0.52173002    0.09960998    0.24132013    0.06900000
opls_700-94    C    0.51953998    0.11448001    0.27708003    0.06060000
opls_145-95    C    0.53525003    0.11583995    0.30804001    -0.11910000
opls_145-96    C    0.53321005    0.12917999    0.34311990    -0.12600000
opls_700-97    C    0.51538995    0.14150004    0.34792013    0.06430000
opls_145-98    C    0.49978996    0.14036999    0.31646998    -0.12850000
opls_145-99    C    0.50182994    0.12698995    0.28141001    -0.12820000
opls_700-100    C    0.51285996    0.15500998    0.38619001    0.06810000
opls_145-101    C    0.52984004    0.16602000    0.40303998    -0.12950000
opls_145-102    C    0.52759993    0.17801002    0.44012007    -0.16560000
opls_916-103    C    0.50838998    0.17922998    0.46082013    0.16790000
opls_145-104    C    0.49135006    0.16858006    0.44393996    -0.17320000
opls_145-105    C    0.49353995    0.15655004    0.40690998    -0.12930000
opls_145-106    C    0.49664007    0.29216993    0.53881016    -0.13220000
opls_145-107    C    0.50098000    0.24583005    0.53869998    -0.13080000
opls_145-108    C    0.50307005    0.22428000    0.53863991    -0.17170000
opls_543-109    C    0.98338994    0.50137993    0.90969009    0.20270000
opls_543-110    C    0.95651005    0.50352998    0.03452997    0.19980000
opls_716-111    C    0.93601006    0.50527993    0.02184005    -0.20170000
opls_716-112    C    0.50084994    0.01050003    0.86707001    -0.20170000
opls_700-113    C    0.49692995    0.96268999    0.07752009    -0.13050000
opls_700-114    C    0.44716007    0.49702001    0.50000000    -0.06630000
opls_543-115    C    0.45851996    0.47858001    0.50000000    0.19980000
opls_716-116    C    0.44938002    0.45916001    0.50000000    -0.20170000
opls_700-117    C    0.50427002    0.42420001    0.50000000    0.06450000
opls_145-118    C    0.50658996    0.38081996    0.50000000    0.19180000
opls_700-119    C    0.49770998    0.28069998    0.50000000    0.06210000
opls_700-120    C    0.49992001    0.25728000    0.50000000    0.06120000
opls_916-121    C    0.50427002    0.21314007    0.50000000    0.16950000
opls_543-122    C    0.48338002    0.45637007    0.50000000    0.19980000
opls_716-123    C    0.46509999    0.44511993    0.50000000    -0.20170000
opls_142-124    C    0.49157003    0.34714999    0.50000000    0.08110000
opls_700-125    C    0.49369000    0.32455995    0.50000000    0.06080000
opls_145-126    C    0.49510993    0.58669003    0.53894988    -0.11960000
opls_145-127    C    0.49392004    0.60832007    0.53892001    -0.17210000
opls_145-128    C    0.50535000    0.68626994    0.46132989    -0.11970000
opls_700-129    C    0.49555993    0.94654993    0.11136009    0.07010000
opls_145-130    C    0.51348994    0.93644007    0.12564002    -0.11980000
opls_145-131    C    0.51232005    0.92196998    0.15893010    -0.17090000
opls_145-132    C    0.49331998    0.91751999    0.17866008    0.19000000
opls_145-133    C    0.47523000    0.92731998    0.16342004    -0.17120000
opls_145-134    C    0.47640997    0.94177007    0.13009013    -0.11870000
opls_142-135    C    0.47826998    0.90039002    0.24132013    0.06900000
opls_700-136    C    0.48046002    0.88551999    0.27708003    0.06060000
opls_145-137    C    0.46474997    0.88416005    0.30804001    -0.11910000
opls_145-138    C    0.46678995    0.87082001    0.34311990    -0.12600000
opls_700-139    C    0.48461005    0.85849996    0.34792013    0.06430000
opls_145-140    C    0.50021004    0.85963001    0.31646998    -0.12840000
opls_145-141    C    0.49817006    0.87301005    0.28141001    -0.12820000
opls_700-142    C    0.48714004    0.84499002    0.38619001    0.06810000
opls_145-143    C    0.47015996    0.83398000    0.40303998    -0.12950000
opls_145-144    C    0.47240007    0.82198998    0.44012007    -0.16560000
opls_916-145    C    0.49161002    0.82077002    0.46082013    0.16790000
opls_145-146    C    0.50864994    0.83141994    0.44393996    -0.17320000
opls_145-147    C    0.50646005    0.84344996    0.40690998    -0.12930000
opls_145-148    C    0.50335993    0.70783007    0.53881016    -0.13220000
opls_145-149    C    0.49902000    0.75416995    0.53869998    -0.13080000
opls_145-150    C    0.49692995    0.77572000    0.53863991    -0.17170000
opls_543-151    C    0.01661006    0.49862007    0.90969009    0.20270000
opls_543-152    C    0.04348995    0.49647002    0.03452997    0.19980000
opls_716-153    C    0.06398994    0.49472007    0.02184005    -0.20170000
opls_716-154    C    0.49915006    0.98949997    0.86707001    -0.20170000
opls_700-155    C    0.50307005    0.03731001    0.07752009    -0.13050000
opls_700-156    C    0.55283993    0.50297999    0.50000000    -0.06630000
opls_543-157    C    0.54148004    0.52141999    0.50000000    0.19980000
opls_716-158    C    0.55061998    0.54083999    0.50000000    -0.20170000
opls_700-159    C    0.49572998    0.57579999    0.50000000    0.06450000
opls_145-160    C    0.49341004    0.61918004    0.50000000    0.19180000
opls_700-161    C    0.50229002    0.71930002    0.50000000    0.06210000
opls_700-162    C    0.50007999    0.74272000    0.50000000    0.06120000
opls_916-163    C    0.49572998    0.78685993    0.50000000    0.16950000
opls_543-164    C    0.51661998    0.54362993    0.50000000    0.19980000
opls_716-165    C    0.53490001    0.55488007    0.50000000    -0.20170000
opls_142-166    C    0.50842997    0.65285001    0.50000000    0.08110000
opls_700-167    C    0.50631000    0.67544005    0.50000000    0.06080000
opls_145-168    C    0.58669003    0.50489007    0.46105012    -0.11960000
opls_145-169    C    0.60832007    0.50607996    0.46107999    -0.17210000
opls_145-170    C    0.68626994    0.49465000    0.53867011    -0.11970000
opls_700-171    C    0.94654993    0.50444007    0.88863991    0.07010000
opls_145-172    C    0.93644007    0.48651006    0.87435998    -0.11980000
opls_145-173    C    0.92196998    0.48767995    0.84106990    -0.17090000
opls_145-174    C    0.91751999    0.50668002    0.82133992    0.19000000
opls_145-175    C    0.92731998    0.52477000    0.83657996    -0.17120000
opls_145-176    C    0.94177007    0.52359003    0.86990987    -0.11870000
opls_142-177    C    0.90039002    0.52173002    0.75867987    0.06900000
opls_700-178    C    0.88551999    0.51953998    0.72291997    0.06060000
opls_145-179    C    0.88416005    0.53525003    0.69195999    -0.11910000
opls_145-180    C    0.87082001    0.53321005    0.65688010    -0.12600000
opls_700-181    C    0.85849996    0.51538995    0.65207987    0.06430000
opls_145-182    C    0.85963001    0.49978996    0.68353002    -0.12850000
opls_145-183    C    0.87301005    0.50182994    0.71858999    -0.12820000
opls_700-184    C    0.84499002    0.51285996    0.61380999    0.06810000
opls_145-185    C    0.83398000    0.52984004    0.59696002    -0.12950000
opls_145-186    C    0.82198998    0.52759993    0.55987993    -0.16560000
opls_916-187    C    0.82077002    0.50838998    0.53917987    0.16790000
opls_145-188    C    0.83141994    0.49135006    0.55606004    -0.17320000
opls_145-189    C    0.84344996    0.49353995    0.59309002    -0.12930000
opls_145-190    C    0.70783007    0.49664007    0.46118984    -0.13220000
opls_145-191    C    0.75416995    0.50098000    0.46130002    -0.13080000
opls_145-192    C    0.77572000    0.50307005    0.46136009    -0.17170000
opls_543-193    C    0.49862007    0.98338994    0.09030991    0.20270000
opls_543-194    C    0.49647002    0.95651005    0.96547003    0.19980000
opls_716-195    C    0.49472007    0.93601006    0.97815995    -0.20170000
opls_716-196    C    0.98949997    0.50084994    0.13292999    -0.20170000
opls_700-197    C    0.03731001    0.49692995    0.92247991    -0.13050000
opls_145-198    C    0.41330997    0.49510993    0.46105012    -0.11960000
opls_145-199    C    0.39167993    0.49392004    0.46107999    -0.17210000
opls_145-200    C    0.31373006    0.50535000    0.53867011    -0.11960000
opls_700-201    C    0.05345007    0.49555993    0.88863991    0.07010000
opls_145-202    C    0.06355993    0.51348994    0.87435998    -0.11980000
opls_145-203    C    0.07803002    0.51232005    0.84106990    -0.17090000
opls_145-204    C    0.08248001    0.49331998    0.82133992    0.19000000
opls_145-205    C    0.07268002    0.47523000    0.83657996    -0.17120000
opls_145-206    C    0.05822993    0.47640997    0.86990987    -0.11870000
opls_142-207    C    0.09960998    0.47826998    0.75867987    0.06900000
opls_700-208    C    0.11448001    0.48046002    0.72291997    0.06060000
opls_145-209    C    0.11583995    0.46474997    0.69195999    -0.11910000
opls_145-210    C    0.12917999    0.46678995    0.65688010    -0.12600000
opls_700-211    C    0.14150004    0.48461005    0.65207987    0.06430000
opls_145-212    C    0.14036999    0.50021004    0.68353002    -0.12850000
opls_145-213    C    0.12698995    0.49817006    0.71858999    -0.12820000
opls_700-214    C    0.15500998    0.48714004    0.61380999    0.06810000
opls_145-215    C    0.16602000    0.47015996    0.59696002    -0.12950000
opls_145-216    C    0.17801002    0.47240007    0.55987993    -0.16560000
opls_916-217    C    0.17922998    0.49161002    0.53917987    0.16790000
opls_145-218    C    0.16858006    0.50864994    0.55606004    -0.17310000
opls_145-219    C    0.15655004    0.50646005    0.59309002    -0.12930000
opls_145-220    C    0.29216993    0.50335993    0.46118984    -0.13220000
opls_145-221    C    0.24583005    0.49902000    0.46130002    -0.13080000
opls_145-222    C    0.22428000    0.49692995    0.46136009    -0.17170000
opls_543-223    C    0.50137993    0.01661006    0.09030991    0.20280000
opls_543-224    C    0.50352998    0.04348995    0.96547003    0.19980000
opls_716-225    C    0.50527993    0.06398994    0.97815995    -0.20170000
opls_716-226    C    0.01050003    0.49915006    0.13292999    -0.20170000
opls_700-227    C    0.96268999    0.50307005    0.92247991    -0.13050000
opls_145-228    C    0.49510993    0.58669003    0.46105012    -0.11950000
opls_145-229    C    0.49392004    0.60832007    0.46107999    -0.17210000
opls_145-230    C    0.50535000    0.68626994    0.53867011    -0.11970000
opls_700-231    C    0.49555993    0.94654993    0.88863991    0.07010000
opls_145-232    C    0.51348994    0.93644007    0.87435998    -0.11980000
opls_145-233    C    0.51232005    0.92196998    0.84106990    -0.17090000
opls_145-234    C    0.49331998    0.91751999    0.82133992    0.19000000
opls_145-235    C    0.47523000    0.92731998    0.83657996    -0.17120000
opls_145-236    C    0.47640997    0.94177007    0.86990987    -0.11870000
opls_142-237    C    0.47826998    0.90039002    0.75867987    0.06900000
opls_700-238    C    0.48046002    0.88551999    0.72291997    0.06060000
opls_145-239    C    0.46474997    0.88416005    0.69195999    -0.11900000
opls_145-240    C    0.46678995    0.87082001    0.65688010    -0.12600000
opls_700-241    C    0.48461005    0.85849996    0.65207987    0.06430000
opls_145-242    C    0.50021004    0.85963001    0.68353002    -0.12840000
opls_145-243    C    0.49817006    0.87301005    0.71858999    -0.12820000
opls_700-244    C    0.48714004    0.84499002    0.61380999    0.06810000
opls_145-245    C    0.47015996    0.83398000    0.59696002    -0.12950000
opls_145-246    C    0.47240007    0.82198998    0.55987993    -0.16560000
opls_916-247    C    0.49161002    0.82077002    0.53917987    0.16790000
opls_145-248    C    0.50864994    0.83141994    0.55606004    -0.17320000
opls_145-249    C    0.50646005    0.84344996    0.59309002    -0.12930000
opls_145-250    C    0.50335993    0.70783007    0.46118984    -0.13220000
opls_145-251    C    0.49902000    0.75416995    0.46130002    -0.13080000
opls_145-252    C    0.49692995    0.77572000    0.46136009    -0.17170000
opls_543-253    C    0.01661006    0.49862007    0.09030991    0.20270000
opls_543-254    C    0.04348995    0.49647002    0.96547003    0.19980000
opls_716-255    C    0.06398994    0.49472007    0.97815995    -0.20170000
opls_716-256    C    0.49915006    0.98949997    0.13292999    -0.20170000
opls_700-257    C    0.50307005    0.03731001    0.92247991    -0.13050000
opls_145-258    C    0.50489007    0.41330997    0.46105012    -0.11960000
opls_145-259    C    0.50607996    0.39167993    0.46107999    -0.17210000
opls_145-260    C    0.49465000    0.31373006    0.53867011    -0.11970000
opls_700-261    C    0.50444007    0.05345007    0.88863991    0.07010000
opls_145-262    C    0.48651006    0.06355993    0.87435998    -0.11980000
opls_145-263    C    0.48767995    0.07803002    0.84106990    -0.17090000
opls_145-264    C    0.50668002    0.08248001    0.82133992    0.19000000
opls_145-265    C    0.52477000    0.07268002    0.83657996    -0.17120000
opls_145-266    C    0.52359003    0.05822993    0.86990987    -0.11870000
opls_142-267    C    0.52173002    0.09960998    0.75867987    0.06900000
opls_700-268    C    0.51953998    0.11448001    0.72291997    0.06060000
opls_145-269    C    0.53525003    0.11583995    0.69195999    -0.11910000
opls_145-270    C    0.53321005    0.12917999    0.65688010    -0.12600000
opls_700-271    C    0.51538995    0.14150004    0.65207987    0.06430000
opls_145-272    C    0.49978996    0.14036999    0.68353002    -0.12850000
opls_145-273    C    0.50182994    0.12698995    0.71858999    -0.12820000
opls_700-274    C    0.51285996    0.15500998    0.61380999    0.06820000
opls_145-275    C    0.52984004    0.16602000    0.59696002    -0.12950000
opls_145-276    C    0.52759993    0.17801002    0.55987993    -0.16560000
opls_916-277    C    0.50838998    0.17922998    0.53917987    0.16800000
opls_145-278    C    0.49135006    0.16858006    0.55606004    -0.17320000
opls_145-279    C    0.49353995    0.15655004    0.59309002    -0.12930000
opls_145-280    C    0.49664007    0.29216993    0.46118984    -0.13220000
opls_145-281    C    0.50098000    0.24583005    0.46130002    -0.13080000
opls_145-282    C    0.50307005    0.22428000    0.46136009    -0.17170000
opls_543-283    C    0.98338994    0.50137993    0.09030991    0.20270000
opls_543-284    C    0.95651005    0.50352998    0.96547003    0.19990000
opls_716-285    C    0.93601006    0.50527993    0.97815995    -0.20170000
opls_716-286    C    0.50084994    0.01050003    0.13292999    -0.20160000
opls_700-287    C    0.49692995    0.96268999    0.92247991    -0.13050000
opls_750-288    N    0.09688995    0.49321008    0.21388002    -0.34390000
opls_750-289    N    0.35873000    0.49204003    0.50000000    -0.30290000
opls_542-290    N    0.47701995    0.52053005    0.50000000    -0.40160000
opls_239-291    N    0.19075993    0.49363001    0.50000000    -0.14120000
opls_542-292    N    0.96927002    0.50246007    0.00000000    -0.40160000
opls_542-293    N    0.00000000    0.50000000    0.06379008    -0.40160000
opls_750-294    N    0.90311005    0.50678992    0.21388002    -0.34390000
opls_750-295    N    0.64127000    0.50795997    0.50000000    -0.30290000
opls_542-296    N    0.52298005    0.47946995    0.50000000    -0.40160000
opls_239-297    N    0.80924007    0.50636999    0.50000000    -0.14140000
opls_542-298    N    0.03072998    0.49753993    0.00000000    -0.40150000
opls_750-299    N    0.50678992    0.09688995    0.21388002    -0.34390000
opls_750-300    N    0.50795997    0.35873000    0.50000000    -0.30290000
opls_542-301    N    0.47946995    0.47701995    0.50000000    -0.40160000
opls_239-302    N    0.50636999    0.19075993    0.50000000    -0.14140000
opls_542-303    N    0.49753993    0.96927002    0.00000000    -0.40160000
opls_542-304    N    0.50000000    0.00000000    0.06379008    -0.40160000
opls_750-305    N    0.49321008    0.90311005    0.21388002    -0.34390000
opls_750-306    N    0.49204003    0.64127000    0.50000000    -0.30290000
opls_542-307    N    0.52053005    0.52298005    0.50000000    -0.40150000
opls_239-308    N    0.49363001    0.80924007    0.50000000    -0.14130000
opls_542-309    N    0.50246007    0.03072998    0.00000000    -0.40160000
opls_750-310    N    0.90311005    0.50678992    0.78611998    -0.34390000
opls_542-311    N    0.00000000    0.50000000    0.93620992    -0.40160000
opls_750-312    N    0.09688995    0.49321008    0.78611998    -0.34390000
opls_750-313    N    0.49321008    0.90311005    0.78611998    -0.34390000
opls_542-314    N    0.50000000    0.00000000    0.93620992    -0.40160000
opls_750-315    N    0.50678992    0.09688995    0.78611998    -0.34390000
opls_146-316    H    0.42157004    0.49555001    0.56919002    0.11580000
opls_146-317    H    0.38336994    0.49341997    0.56910008    0.11860000
opls_146-318    H    0.32198998    0.50613003    0.43108012    0.11400000
opls_146-319    H    0.06002995    0.52837996    0.11133985    0.11470000
opls_146-320    H    0.08555006    0.52633998    0.16997989    0.11600000
opls_146-321    H    0.07609002    0.46016001    0.17676010    0.11840000
opls_146-322    H    0.05059998    0.46243003    0.11906989    0.11400000
opls_144-323    H    0.09035007    0.46433996    0.23981010    0.11300000
opls_146-324    H    0.10632008    0.45098008    0.30545005    0.11470000
opls_146-325    H    0.12947002    0.45463004    0.36705009    0.11880000
opls_146-326    H    0.14987002    0.51397994    0.31891988    0.11830000
opls_146-327    H    0.12635998    0.51050995    0.25789996    0.11580000
opls_146-328    H    0.16537995    0.45516003    0.38753011    0.11860000
opls_146-329    H    0.18622995    0.45916001    0.45301011    0.11610000
opls_146-330    H    0.16943000    0.52355996    0.45972992    0.12070000
opls_146-331    H    0.14806008    0.51975995    0.39512010    0.11880000
opls_146-332    H    0.28498999    0.50270003    0.56994006    0.09320000
opls_146-333    H    0.25300998    0.49976996    0.56981993    0.09320000
opls_146-334    H    0.21640002    0.49629997    0.56927001    0.11680000
opls_547-335    H    0.50650005    0.07758994    0.04201010    0.11570000
opls_547-336    H    0.02018003    0.49837995    0.83872985    0.11580000
opls_547-337    H    0.45545006    0.56698000    0.50000000    0.11860000
opls_547-338    H    0.42843995    0.53674995    0.50000000    0.11640000
opls_144-339    H    0.35394999    0.52379000    0.50000000    0.10500000
opls_146-340    H    0.57842996    0.50444999    0.56919002    0.11580000
opls_146-341    H    0.61663006    0.50658003    0.56910008    0.11860000
opls_146-342    H    0.67801002    0.49386997    0.43108012    0.11400000
opls_146-343    H    0.93997005    0.47162004    0.11133985    0.11470000
opls_146-344    H    0.91444994    0.47366002    0.16997989    0.11600000
opls_146-345    H    0.92390998    0.53983999    0.17676010    0.11840000
opls_146-346    H    0.94940002    0.53756997    0.11906989    0.11400000
opls_144-347    H    0.90964993    0.53566004    0.23981010    0.11300000
opls_146-348    H    0.89367992    0.54901992    0.30545005    0.11470000
opls_146-349    H    0.87052998    0.54536996    0.36705009    0.11880000
opls_146-350    H    0.85012998    0.48602006    0.31891988    0.11830000
opls_146-351    H    0.87364002    0.48949005    0.25789996    0.11580000
opls_146-352    H    0.83462005    0.54483997    0.38753011    0.11860000
opls_146-353    H    0.81377005    0.54083999    0.45301011    0.11610000
opls_146-354    H    0.83057000    0.47644004    0.45972992    0.12070000
opls_146-355    H    0.85193992    0.48024005    0.39512010    0.11880000
opls_146-356    H    0.71501001    0.49729997    0.56994006    0.09320000
opls_146-357    H    0.74699002    0.50023004    0.56981993    0.09320000
opls_146-358    H    0.78359998    0.50370003    0.56927001    0.11680000
opls_547-359    H    0.49349995    0.92241006    0.04201010    0.11560000
opls_547-360    H    0.97981997    0.50162005    0.83872985    0.11580000
opls_547-361    H    0.54454994    0.43302000    0.50000000    0.11860000
opls_547-362    H    0.57156005    0.46325005    0.50000000    0.11640000
opls_144-363    H    0.64605001    0.47621000    0.50000000    0.10500000
opls_146-364    H    0.50444999    0.42157004    0.56919002    0.11580000
opls_146-365    H    0.50658003    0.38336994    0.56910008    0.11860000
opls_146-366    H    0.49386997    0.32198998    0.43108012    0.11400000
opls_146-367    H    0.47162004    0.06002995    0.11133985    0.11470000
opls_146-368    H    0.47366002    0.08555006    0.16997989    0.11600000
opls_146-369    H    0.53983999    0.07609002    0.17676010    0.11840000
opls_146-370    H    0.53756997    0.05059998    0.11906989    0.11400000
opls_144-371    H    0.53566004    0.09035007    0.23981010    0.11300000
opls_146-372    H    0.54901992    0.10632008    0.30545005    0.11480000
opls_146-373    H    0.54536996    0.12947002    0.36705009    0.11880000
opls_146-374    H    0.48602006    0.14987002    0.31891988    0.11830000
opls_146-375    H    0.48949005    0.12635998    0.25789996    0.11590000
opls_146-376    H    0.54483997    0.16537995    0.38753011    0.11870000
opls_146-377    H    0.54083999    0.18622995    0.45301011    0.11610000
opls_146-378    H    0.47644004    0.16943000    0.45972992    0.12070000
opls_146-379    H    0.48024005    0.14806008    0.39512010    0.11880000
opls_146-380    H    0.49729997    0.28498999    0.56994006    0.09320000
opls_146-381    H    0.50023004    0.25300998    0.56981993    0.09320000
opls_146-382    H    0.50370003    0.21640002    0.56927001    0.11680000
opls_547-383    H    0.92241006    0.50650005    0.04201010    0.11570000
opls_547-384    H    0.50162005    0.02018003    0.83872985    0.11580000
opls_547-385    H    0.43302000    0.45545006    0.50000000    0.11860000
opls_547-386    H    0.46325005    0.42843995    0.50000000    0.11640000
opls_144-387    H    0.47621000    0.35394999    0.50000000    0.10500000
opls_146-388    H    0.49555001    0.57842996    0.56919002    0.11590000
opls_146-389    H    0.49341997    0.61663006    0.56910008    0.11860000
opls_146-390    H    0.50613003    0.67801002    0.43108012    0.11400000
opls_146-391    H    0.52837996    0.93997005    0.11133985    0.11470000
opls_146-392    H    0.52633998    0.91444994    0.16997989    0.11600000
opls_146-393    H    0.46016001    0.92390998    0.17676010    0.11840000
opls_146-394    H    0.46243003    0.94940002    0.11906989    0.11400000
opls_144-395    H    0.46433996    0.90964993    0.23981010    0.11300000
opls_146-396    H    0.45098008    0.89367992    0.30545005    0.11470000
opls_146-397    H    0.45463004    0.87052998    0.36705009    0.11880000
opls_146-398    H    0.51397994    0.85012998    0.31891988    0.11830000
opls_146-399    H    0.51050995    0.87364002    0.25789996    0.11580000
opls_146-400    H    0.45516003    0.83462005    0.38753011    0.11860000
opls_146-401    H    0.45916001    0.81377005    0.45301011    0.11610000
opls_146-402    H    0.52355996    0.83057000    0.45972992    0.12070000
opls_146-403    H    0.51975995    0.85193992    0.39512010    0.11880000
opls_146-404    H    0.50270003    0.71501001    0.56994006    0.09320000
opls_146-405    H    0.49976996    0.74699002    0.56981993    0.09320000
opls_146-406    H    0.49629997    0.78359998    0.56927001    0.11680000
opls_547-407    H    0.07758994    0.49349995    0.04201010    0.11560000
opls_547-408    H    0.49837995    0.97981997    0.83872985    0.11580000
opls_547-409    H    0.56698000    0.54454994    0.50000000    0.11870000
opls_547-410    H    0.53674995    0.57156005    0.50000000    0.11640000
opls_144-411    H    0.52379000    0.64605001    0.50000000    0.10500000
opls_146-412    H    0.57842996    0.50444999    0.43080998    0.11580000
opls_146-413    H    0.61663006    0.50658003    0.43089992    0.11860000
opls_146-414    H    0.67801002    0.49386997    0.56891988    0.11400000
opls_146-415    H    0.93997005    0.47162004    0.88866015    0.11470000
opls_146-416    H    0.91444994    0.47366002    0.83002011    0.11600000
opls_146-417    H    0.92390998    0.53983999    0.82323990    0.11840000
opls_146-418    H    0.94940002    0.53756997    0.88093011    0.11400000
opls_144-419    H    0.90964993    0.53566004    0.76018990    0.11300000
opls_146-420    H    0.89367992    0.54901992    0.69454995    0.11470000
opls_146-421    H    0.87052998    0.54536996    0.63294991    0.11880000
opls_146-422    H    0.85012998    0.48602006    0.68108012    0.11830000
opls_146-423    H    0.87364002    0.48949005    0.74210004    0.11580000
opls_146-424    H    0.83462005    0.54483997    0.61246989    0.11860000
opls_146-425    H    0.81377005    0.54083999    0.54698989    0.11610000
opls_146-426    H    0.83057000    0.47644004    0.54027008    0.12070000
opls_146-427    H    0.85193992    0.48024005    0.60487990    0.11880000
opls_146-428    H    0.71501001    0.49729997    0.43005994    0.09320000
opls_146-429    H    0.74699002    0.50023004    0.43018007    0.09320000
opls_146-430    H    0.78359998    0.50370003    0.43072999    0.11680000
opls_547-431    H    0.49349995    0.92241006    0.95798990    0.11560000
opls_547-432    H    0.97981997    0.50162005    0.16127015    0.11590000
opls_146-433    H    0.42157004    0.49555001    0.43080998    0.11580000
opls_146-434    H    0.38336994    0.49341997    0.43089992    0.11860000
opls_146-435    H    0.32198998    0.50613003    0.56891988    0.11400000
opls_146-436    H    0.06002995    0.52837996    0.88866015    0.11470000
opls_146-437    H    0.08555006    0.52633998    0.83002011    0.11600000
opls_146-438    H    0.07609002    0.46016001    0.82323990    0.11840000
opls_146-439    H    0.05059998    0.46243003    0.88093011    0.11400000
opls_144-440    H    0.09035007    0.46433996    0.76018990    0.11300000
opls_146-441    H    0.10632008    0.45098008    0.69454995    0.11470000
opls_146-442    H    0.12947002    0.45463004    0.63294991    0.11880000
opls_146-443    H    0.14987002    0.51397994    0.68108012    0.11830000
opls_146-444    H    0.12635998    0.51050995    0.74210004    0.11580000
opls_146-445    H    0.16537995    0.45516003    0.61246989    0.11870000
opls_146-446    H    0.18622995    0.45916001    0.54698989    0.11610000
opls_146-447    H    0.16943000    0.52355996    0.54027008    0.12070000
opls_146-448    H    0.14806008    0.51975995    0.60487990    0.11880000
opls_146-449    H    0.28498999    0.50270003    0.43005994    0.09320000
opls_146-450    H    0.25300998    0.49976996    0.43018007    0.09320000
opls_146-451    H    0.21640002    0.49629997    0.43072999    0.11680000
opls_547-452    H    0.50650005    0.07758994    0.95798990    0.11560000
opls_547-453    H    0.02018003    0.49837995    0.16127015    0.11580000
opls_146-454    H    0.49555001    0.57842996    0.43080998    0.11580000
opls_146-455    H    0.49341997    0.61663006    0.43089992    0.11860000
opls_146-456    H    0.50613003    0.67801002    0.56891988    0.11400000
opls_146-457    H    0.52837996    0.93997005    0.88866015    0.11470000
opls_146-458    H    0.52633998    0.91444994    0.83002011    0.11600000
opls_146-459    H    0.46016001    0.92390998    0.82323990    0.11840000
opls_146-460    H    0.46243003    0.94940002    0.88093011    0.11400000
opls_144-461    H    0.46433996    0.90964993    0.76018990    0.11300000
opls_146-462    H    0.45098008    0.89367992    0.69454995    0.11470000
opls_146-463    H    0.45463004    0.87052998    0.63294991    0.11880000
opls_146-464    H    0.51397994    0.85012998    0.68108012    0.11830000
opls_146-465    H    0.51050995    0.87364002    0.74210004    0.11580000
opls_146-466    H    0.45516003    0.83462005    0.61246989    0.11860000
opls_146-467    H    0.45916001    0.81377005    0.54698989    0.11620000
opls_146-468    H    0.52355996    0.83057000    0.54027008    0.12070000
opls_146-469    H    0.51975995    0.85193992    0.60487990    0.11880000
opls_146-470    H    0.50270003    0.71501001    0.43005994    0.09320000
opls_146-471    H    0.49976996    0.74699002    0.43018007    0.09320000
opls_146-472    H    0.49629997    0.78359998    0.43072999    0.11680000
opls_547-473    H    0.07758994    0.49349995    0.95798990    0.11560000
opls_547-474    H    0.49837995    0.97981997    0.16127015    0.11580000
opls_146-475    H    0.50444999    0.42157004    0.43080998    0.11580000
opls_146-476    H    0.50658003    0.38336994    0.43089992    0.11860000
opls_146-477    H    0.49386997    0.32198998    0.56891988    0.11400000
opls_146-478    H    0.47162004    0.06002995    0.88866015    0.11470000
opls_146-479    H    0.47366002    0.08555006    0.83002011    0.11610000
opls_146-480    H    0.53983999    0.07609002    0.82323990    0.11840000
opls_146-481    H    0.53756997    0.05059998    0.88093011    0.11400000
opls_144-482    H    0.53566004    0.09035007    0.76018990    0.11300000
opls_146-483    H    0.54901992    0.10632008    0.69454995    0.11470000
opls_146-484    H    0.54536996    0.12947002    0.63294991    0.11880000
opls_146-485    H    0.48602006    0.14987002    0.68108012    0.11830000
opls_146-486    H    0.48949005    0.12635998    0.74210004    0.11580000
opls_146-487    H    0.54483997    0.16537995    0.61246989    0.11860000
opls_146-488    H    0.54083999    0.18622995    0.54698989    0.11610000
opls_146-489    H    0.47644004    0.16943000    0.54027008    0.12070000
opls_146-490    H    0.48024005    0.14806008    0.60487990    0.11890000
opls_146-491    H    0.49729997    0.28498999    0.43005994    0.09320000
opls_146-492    H    0.50023004    0.25300998    0.43018007    0.09320000
opls_146-493    H    0.50370003    0.21640002    0.43072999    0.11680000
opls_547-494    H    0.92241006    0.50650005    0.95798990    0.11560000
opls_547-495    H    0.50162005    0.02018003    0.16127015    0.11580000
Cu2+-496    Cu    0.50000000    0.50000000    0.50000000    0.67790000
Cu2+-497    Cu    0.00000000    0.50000000    0.00000000    0.67780000
Cu2+-498    Cu    0.50000000    0.00000000    0.00000000    0.67780000
