#======================================================================
# Crystal Data Generated By AuToFF
#----------------------------------------------------------------------

data_AuToFF_phase_1

_cell_length_a                         23.4586
_cell_length_b                         23.4586
_cell_length_c                         3.8991
_cell_angle_alpha                      90.00
_cell_angle_beta                       90.00
_cell_angle_gamma                      120.00
_symmetry_space_group_name_H-M_alt     'P 1'
_symmetry_space_group_IT_number        1

loop_
_space_group_symop_operation_xyz
   'x, y, z'

loop_
   _atom_site_label
   _atom_site_type_symbol
   _atom_site_fract_x
   _atom_site_fract_y
   _atom_site_fract_z
   _atom_site_charge
opls_145-0    C    0.86947999    0.82533002    0.30775051    -0.15390000
opls_145-1    C    0.90333004    0.89322023    0.29438075    -0.15390000
opls_916-2    C    0.96540995    0.92987014    0.44937037    0.18050000
opls_145-3    C    0.99234009    0.89513008    0.61074094    -0.15900000
opls_145-4    C    0.95891003    0.82719999    0.62013029    -0.15930000
opls_145-5    C    0.89603993    0.79073024    0.47313996    0.21070000
opls_145-6    C    0.41640007    0.18581012    0.47434023    -0.11310000
opls_145-7    C    0.48405976    0.21404980    0.46697956    -0.11080000
opls_700-8    C    0.52486020    0.27475002    0.62631889    0.07130000
opls_145-9    C    0.49506984    0.30610994    0.79252905    -0.11080000
opls_145-10    C    0.42736027    0.27787026    0.80043087    -0.11100000
opls_700-11    C    0.38671012    0.21717988    0.64161986    0.05890000
opls_700-12    C    0.59786009    0.30492022    0.62192044    0.07620000
opls_145-13    C    0.62673012    0.26531005    0.62164089    -0.15790000
opls_142-14    C    0.87229026    0.68505011    0.65321997    0.02980000
opls_145-15    C    0.17467021    0.04415000    0.30775051    -0.15390000
opls_145-16    C    0.10678011    0.01010990    0.29438075    -0.15390000
opls_916-17    C    0.07012987    0.03553993    0.44937037    0.18050000
opls_145-18    C    0.10487000    0.09720985    0.61074094    -0.15900000
opls_145-19    C    0.17280010    0.13171019    0.62013029    -0.15930000
opls_145-20    C    0.20927004    0.10530997    0.47313996    0.21070000
opls_145-21    C    0.81419016    0.23059017    0.47434023    -0.11310000
opls_145-22    C    0.78595000    0.27000985    0.46697956    -0.11080000
opls_700-23    C    0.72524982    0.25011001    0.62631889    0.07130000
opls_145-24    C    0.69388997    0.18895989    0.79252905    -0.11080000
opls_145-25    C    0.72213018    0.14949000    0.80043087    -0.11100000
opls_700-26    C    0.78281994    0.16953013    0.64161986    0.05890000
opls_700-27    C    0.69507982    0.29293986    0.62192044    0.07620000
opls_145-28    C    0.73469033    0.36142026    0.62164089    -0.15780000
opls_142-29    C    0.31494994    0.18724004    0.65321997    0.02980000
opls_145-30    C    0.95584980    0.13051998    0.30775051    -0.15390000
opls_145-31    C    0.98988985    0.09666987    0.29438075    -0.15380000
opls_916-32    C    0.96445976    0.03458993    0.44937037    0.18060000
opls_145-33    C    0.90278990    0.00766007    0.61074094    -0.15900000
opls_145-34    C    0.86828987    0.04108982    0.62013029    -0.15930000
opls_145-35    C    0.89469003    0.10395979    0.47313996    0.21070000
opls_145-36    C    0.76941002    0.58360020    0.47434023    -0.11310000
opls_145-37    C    0.72999000    0.51593986    0.46697956    -0.11080000
opls_700-38    C    0.74988998    0.47513997    0.62631889    0.07130000
opls_145-39    C    0.81104019    0.50493017    0.79252905    -0.11060000
opls_145-40    C    0.85051022    0.57264023    0.80043087    -0.11100000
opls_700-41    C    0.83046995    0.61328999    0.64161986    0.05890000
opls_700-42    C    0.70706009    0.40213992    0.62192044    0.07620000
opls_145-43    C    0.63858022    0.37327018    0.62164089    -0.15790000
opls_142-44    C    0.81275980    0.12770984    0.65321997    0.02990000
opls_750-45    N    0.86454026    0.14292022    0.46932882    -0.26920000
opls_750-46    N    0.85708016    0.72162028    0.46932882    -0.26910000
opls_750-47    N    0.27837982    0.13545999    0.46932882    -0.26920000
opls_239-48    N    0.00000000    0.00000000    0.44288938    -0.11830000
opls_146-49    H    0.82127001    0.79784000    0.18476059    0.13760000
opls_146-50    H    0.88113017    0.91789027    0.15763894    0.11560000
opls_146-51    H    0.04026004    0.92151996    0.73652125    0.11510000
opls_146-52    H    0.98234993    0.80293999    0.74993973    0.05010000
opls_146-53    H    0.38537977    0.13866982    0.34601062    0.06850000
opls_146-54    H    0.50551983    0.18888999    0.32669077    0.06850000
opls_146-55    H    0.52506984    0.35269993    0.92758072    0.12290000
opls_146-56    H    0.40541997    0.30309012    0.93632120    0.06180000
opls_146-57    H    0.59525989    0.21172992    0.62215127    0.12240000
opls_144-58    H    0.91612025    0.70493027    0.82666000    0.04820000
opls_146-59    H    0.20215992    0.02343011    0.18476059    0.13750000
opls_146-60    H    0.08210972    0.96323983    0.15763894    0.11560000
opls_146-61    H    0.07847981    0.11873995    0.73652125    0.11510000
opls_146-62    H    0.19706016    0.17941015    0.74993973    0.05010000
opls_146-63    H    0.86133008    0.24671019    0.34601062    0.06850000
opls_146-64    H    0.81111007    0.31662986    0.32669077    0.06850000
opls_146-65    H    0.64729980    0.17236980    0.92758072    0.12290000
opls_146-66    H    0.69690985    0.10233002    0.93632120    0.06180000
opls_146-67    H    0.78827001    0.38353021    0.62215127    0.12250000
opls_144-68    H    0.29507005    0.21118994    0.82666000    0.04820000
opls_146-69    H    0.97657006    0.17872989    0.18476059    0.13750000
opls_146-70    H    0.03676011    0.11886990    0.15763894    0.11560000
opls_146-71    H    0.88126015    0.95974008    0.73652125    0.11510000
opls_146-72    H    0.82058991    0.01764986    0.74993973    0.05010000
opls_146-73    H    0.75329015    0.61461999    0.34601062    0.06850000
opls_146-74    H    0.68337010    0.49448014    0.32669077    0.06850000
opls_146-75    H    0.82762994    0.47493028    0.92758072    0.12300000
opls_146-76    H    0.89766975    0.59457987    0.93632120    0.06180000
opls_146-77    H    0.61647010    0.40473987    0.62215127    0.12240000
opls_144-78    H    0.78880970    0.08387979    0.82666000    0.04820000
