#======================================================================
# Crystal Data Generated By AuToFF
#----------------------------------------------------------------------

data_AuToFF_phase_1

_cell_length_a                         34.6700
_cell_length_b                         34.6900
_cell_length_c                         10.6600
_cell_angle_alpha                      69.00
_cell_angle_beta                       110.00
_cell_angle_gamma                      110.00
_symmetry_space_group_name_H-M_alt     'P 1'
_symmetry_space_group_IT_number        1

loop_
_space_group_symop_operation_xyz
   'x, y, z'

loop_
   _atom_site_label
   _atom_site_type_symbol
   _atom_site_fract_x
   _atom_site_fract_y
   _atom_site_fract_z
   _atom_site_charge
opls_142-0    C    0.31407995    0.13695015    0.93947011    0.07150000
opls_142-1    C    0.87419981    0.06410994    0.96942994    0.06820000
opls_142-2    C    0.12927003    0.31111991    0.05278048    0.07480000
opls_142-3    C    0.54938977    0.37358005    0.99572002    0.07150000
opls_142-4    C    0.81189990    0.63292007    0.04104998    0.07650000
opls_142-5    C    0.36827004    0.55174002    0.00873949    0.06850000
opls_142-6    C    0.62875992    0.81448999    0.96658008    0.06840000
opls_142-7    C    0.06054993    0.87804997    0.03997999    0.07150000
opls_145-8    C    0.90651007    0.84385015    0.91031978    -0.12560000
opls_145-9    C    0.94580980    0.84000017    0.91508961    -0.18100000
opls_145-10    C    0.98338999    0.85855994    0.00144050    0.18520000
opls_145-11    C    0.98132001    0.88009987    0.08779968    -0.19120000
opls_145-12    C    0.94190994    0.88304995    0.08598972    -0.13660000
opls_145-13    C    0.80049990    0.76168992    0.94041972    -0.13480000
opls_145-14    C    0.80385984    0.72140997    0.95442927    -0.17910000
opls_145-15    C    0.83741012    0.70585988    0.05599046    0.18780000
opls_145-16    C    0.86719001    0.73098008    0.14327020    -0.18070000
opls_145-17    C    0.86362994    0.77125999    0.12977956    -0.13480000
opls_145-18    C    0.87879978    0.94573993    0.92111935    -0.11400000
opls_145-19    C    0.87579982    0.98505996    0.91967989    -0.17320000
opls_145-20    C    0.85426985    0.98712996    0.00596955    0.18980000
opls_145-21    C    0.83564990    0.94958992    0.09166972    -0.17180000
opls_145-22    C    0.83955994    0.91036997    0.09607008    -0.13340000
opls_700-23    C    0.85986995    0.90785988    0.00695963    0.06050000
opls_700-24    C    0.90397987    0.86409018    0.99968969    0.06150000
opls_700-25    C    0.83105001    0.78763985    0.02470949    0.06650000
opls_700-26    C    0.86205005    0.86601990    0.00333971    -0.02950000
opls_700-27    C    0.82741000    0.83124977    0.00333037    -0.03020000
opls_145-28    C    0.72650999    0.87013015    0.86339988    -0.19050000
opls_145-29    C    0.70164987    0.84039999    0.95106984    0.19260000
opls_145-30    C    0.71758988    0.80719008    0.05286973    -0.19000000
opls_145-31    C    0.75798995    0.80409983    0.06671946    -0.13650000
opls_700-32    C    0.78366976    0.83459000    0.98200937    0.06930000
opls_145-33    C    0.76692989    0.86684987    0.87674004    -0.13480000
opls_145-34    C    0.82148991    0.13533000    0.01592952    -0.13380000
opls_145-35    C    0.82896996    0.09910001    0.00958013    -0.12750000
opls_700-36    C    0.86610974    0.10199011    0.97800960    0.05450000
opls_145-37    C    0.89590980    0.14156998    0.95467004    -0.12330000
opls_145-38    C    0.88880975    0.17771001    0.96318952    -0.13410000
opls_145-39    C    0.65988989    0.39145017    0.96222953    -0.13380000
opls_145-40    C    0.62370001    0.39894996    0.96968005    -0.13320000
opls_700-41    C    0.58734994    0.36525022    0.98754926    0.07430000
opls_145-42    C    0.58789973    0.32385999    0.99872971    -0.13430000
opls_145-43    C    0.62442991    0.31622017    0.99447983    -0.13380000
opls_145-44    C    0.86757999    0.55646984    0.04174014    -0.13480000
opls_145-45    C    0.86084006    0.59331001    0.04657016    -0.13500000
opls_700-46    C    0.82018991    0.59380981    0.04352000    0.06760000
opls_145-47    C    0.78652984    0.55686985    0.03702946    -0.13380000
opls_145-48    C    0.79333998    0.51993985    0.03359012    -0.13350000
opls_700-49    C    0.85129995    0.17514004    0.99270931    0.06630000
opls_700-50    C    0.66060994    0.34998024    0.97577933    0.06750000
opls_700-51    C    0.83384995    0.51950013    0.03505968    0.06300000
opls_145-52    C    0.92221995    0.33839997    0.14940995    -0.08580000
opls_145-53    C    0.96136999    0.33297995    0.15895998    -0.13340000
opls_700-54    C    0.97944009    0.35123993    0.04548044    0.06950000
opls_145-55    C    0.95830989    0.37668998    0.92506930    -0.12920000
opls_145-56    C    0.91904980    0.38179000    0.91562928    -0.13130000
opls_145-57    C    0.81211983    0.24889988    0.08471009    -0.13260000
opls_145-58    C    0.82051002    0.21221985    0.08535043    -0.12930000
opls_700-59    C    0.84277979    0.21400021    0.99504959    0.06700000
opls_145-60    C    0.85587005    0.25319024    0.90344941    -0.08680000
opls_145-61    C    0.84712983    0.28961999    0.90231922    -0.17160000
opls_145-62    C    0.86982977    0.44443009    0.94034914    -0.13450000
opls_145-63    C    0.86393994    0.48183015    0.94418908    -0.12800000
opls_700-64    C    0.84086996    0.48032004    0.03134947    0.07760000
opls_145-65    C    0.82468016    0.44106001    0.11649025    -0.13730000
opls_145-66    C    0.83131014    0.40391014    0.11449971    -0.13890000
opls_700-67    C    0.85236980    0.40466984    0.02232976    0.06330000
opls_700-68    C    0.90025004    0.36229001    0.02723970    0.06460000
opls_700-69    C    0.82689984    0.28854000    0.99704947    0.06030000
opls_700-70    C    0.85648998    0.36414999    0.01390992    -0.03170000
opls_700-71    C    0.82222000    0.32891987    0.00478021    -0.03060000
opls_145-72    C    0.71848985    0.36229022    0.86604944    -0.13480000
opls_700-73    C    0.69985981    0.34174010    0.97752909    0.08060000
opls_145-74    C    0.72002002    0.31472000    0.09448948    -0.13170000
opls_145-75    C    0.75916992    0.30971992    0.10250976    -0.13160000
opls_700-76    C    0.77840982    0.33063001    0.99191952    0.06030000
opls_145-77    C    0.75717004    0.35636020    0.87282953    -0.13270000
opls_145-78    C    0.37052012    0.05059007    0.03571039    -0.12740000
opls_145-79    C    0.36162001    0.08722999    0.03378005    -0.13190000
opls_700-80    C    0.32387999    0.09798022    0.94634983    0.05580000
opls_145-81    C    0.29506994    0.07135000    0.86191995    -0.13140000
opls_145-82    C    0.30333000    0.03419005    0.86635975    -0.13310000
opls_700-83    C    0.34130970    0.02323999    0.95273969    0.06040000
opls_145-84    C    0.02529994    0.30100986    0.11723022    -0.13170000
opls_145-85    C    0.06127987    0.29141999    0.11761006    -0.13540000
opls_700-86    C    0.09135994    0.32219994    0.04940029    0.05290000
opls_145-87    C    0.08491976    0.36295019    0.98117911    -0.12560000
opls_145-88    C    0.04901004    0.37271017    0.98154961    -0.12110000
opls_700-89    C    0.01868987    0.34179991    0.04951030    0.06040000
opls_145-90    C    0.51576001    0.79528003    0.97558006    -0.13380000
opls_145-91    C    0.55274983    0.78871998    0.97150973    -0.13110000
opls_700-92    C    0.58956989    0.82250003    0.96477946    0.05780000
opls_145-93    C    0.58889978    0.86301997    0.96220981    -0.13400000
opls_145-94    C    0.55201997    0.86950023    0.96767913    -0.13430000
opls_145-95    C    0.31080009    0.62660005    0.01058993    -0.13110000
opls_145-96    C    0.31844996    0.59010990    0.00613975    -0.13140000
opls_700-97    C    0.35986010    0.58966999    0.01664977    0.05590000
opls_145-98    C    0.39356991    0.62610001    0.03393987    -0.12970000
opls_145-99    C    0.38606007    0.66223007    0.04163947    -0.13750000
opls_145-100    C    0.17409003    0.89197998    0.04646949    -0.12970000
opls_145-101    C    0.13810006    0.89925996    0.05549957    -0.13470000
opls_700-102    C    0.09829993    0.86974988    0.03127993    0.06450000
opls_145-103    C    0.09504975    0.83268996    0.99845987    -0.13750000
opls_145-104    C    0.13111973    0.82501993    0.99162997    -0.13110000
opls_700-105    C    0.34457989    0.66282990    0.02888983    0.06300000
opls_700-106    C    0.51515998    0.83566006    0.97452979    0.06040000
opls_700-107    C    0.17113006    0.85456991    0.01559015    0.06610000
opls_145-108    C    0.39618978    0.33417006    0.90419975    -0.13660000
opls_145-109    C    0.43507992    0.33081006    0.90270944    -0.17730000
opls_145-110    C    0.47352988    0.35050997    0.98285000    0.18430000
opls_145-111    C    0.47282998    0.37268992    0.06954026    -0.19670000
opls_145-112    C    0.43386011    0.37478982    0.07536036    -0.18710000
opls_145-113    C    0.28844973    0.25000024    0.95019911    -0.12970000
opls_145-114    C    0.29190991    0.21079011    0.95257987    -0.18710000
opls_145-115    C    0.32875984    0.19702001    0.03395959    0.17710000
opls_145-116    C    0.36006006    0.22156000    0.12080967    -0.18880000
opls_145-117    C    0.35645998    0.26082984    0.11847042    -0.13150000
opls_145-118    C    0.37056992    0.43609009    0.93325979    -0.12110000
opls_145-119    C    0.36772974    0.47499999    0.93693990    -0.16960000
opls_145-120    C    0.34578003    0.47586001    0.02399028    0.19100000
opls_145-121    C    0.32701996    0.43761016    0.10658944    -0.17340000
opls_145-122    C    0.33128995    0.39888998    0.10741036    -0.12300000
opls_700-123    C    0.35148010    0.39734991    0.01596999    0.06710000
opls_700-124    C    0.39492982    0.35471017    0.99517932    0.06090000
opls_700-125    C    0.32179998    0.27679003    0.02624027    0.05920000
opls_700-126    C    0.35344997    0.35574986    0.00720040    -0.02720000
opls_700-127    C    0.31890989    0.32057001    0.00997969    -0.03080000
opls_145-128    C    0.21761997    0.35831023    0.88840930    -0.14090000
opls_145-129    C    0.19615973    0.33118008    0.98916930    0.19310000
opls_145-130    C    0.21426014    0.29933013    0.09198003    -0.19330000
opls_145-131    C    0.25321995    0.29534005    0.09394047    -0.17160000
opls_700-132    C    0.27572978    0.32378000    0.99743969    0.07140000
opls_145-133    C    0.25689993    0.35448013    0.89137954    -0.14120000
opls_145-134    C    0.39934988    0.83283003    0.89459990    -0.13380000
opls_145-135    C    0.43655982    0.82620994    0.89294977    -0.13480000
opls_700-136    C    0.47588983    0.84245017    0.97847974    0.06340000
opls_145-137    C    0.47741001    0.86547992    0.06594005    -0.13300000
opls_145-138    C    0.43995002    0.87134988    0.06944997    -0.12830000
opls_145-139    C    0.30441989    0.76129007    0.90378981    -0.13410000
opls_145-140    C    0.30927997    0.72216992    0.91113966    -0.12980000
opls_700-141    C    0.33636994    0.70197000    0.02789041    0.06750000
opls_145-142    C    0.35710996    0.72052012    0.13984954    -0.13470000
opls_145-143    C    0.35134995    0.75918006    0.13372016    -0.12130000
opls_145-144    C    0.37736993    0.92084987    0.09297945    -0.12980000
opls_145-145    C    0.37322992    0.96060989    0.08238018    -0.13240000
opls_700-146    C    0.34936986    0.98276998    0.95954988    0.06620000
opls_145-147    C    0.33161985    0.96471008    0.84554936    -0.13370000
opls_145-148    C    0.33561980    0.92480012    0.85696954    -0.12500000
opls_700-149    C    0.35813989    0.90218994    0.98085946    0.06740000
opls_700-150    C    0.40013989    0.85394012    0.98676985    0.05940000
opls_700-151    C    0.32558001    0.78047986    0.01480971    0.06640000
opls_700-152    C    0.35962988    0.85833990    0.99424009    -0.02960000
opls_700-153    C    0.32419006    0.82432007    0.00247001    -0.03000000
opls_145-154    C    0.24919995    0.85856995    0.10477014    -0.13480000
opls_700-155    C    0.20980998    0.84581998    0.01269048    0.06640000
opls_145-156    C    0.20763997    0.82358990    0.92155005    -0.12690000
opls_145-157    C    0.24413995    0.81488991    0.92191951    -0.13110000
opls_700-158    C    0.28396985    0.82932002    0.01013951    0.06640000
opls_145-159    C    0.28542001    0.84945979    0.10568031    -0.13280000
opls_142-160    C    0.31408006    0.13695019    0.43946959    0.07150000
opls_142-161    C    0.87419992    0.06410998    0.46942942    0.06820000
opls_142-162    C    0.12926985    0.31111995    0.55277996    0.07480000
opls_142-163    C    0.54938987    0.37358010    0.49571951    0.07150000
opls_142-164    C    0.81190000    0.63292011    0.54104947    0.07650000
opls_142-165    C    0.36826994    0.55173998    0.50874001    0.06850000
opls_142-166    C    0.62876002    0.81449003    0.46657956    0.06840000
opls_142-167    C    0.06055004    0.87805002    0.53997947    0.07150000
opls_145-168    C    0.90650986    0.84384980    0.41032030    -0.12560000
opls_145-169    C    0.94580988    0.83999982    0.41509013    -0.18100000
opls_145-170    C    0.98339009    0.85855998    0.50143998    0.18520000
opls_145-171    C    0.98131991    0.88009983    0.58780020    -0.19130000
opls_145-172    C    0.94190983    0.88304990    0.58599024    -0.13670000
opls_145-173    C    0.80050009    0.76168988    0.44042023    -0.13480000
opls_145-174    C    0.80386003    0.72140993    0.45442978    -0.17910000
opls_145-175    C    0.83740994    0.70585992    0.55598994    0.18780000
opls_145-176    C    0.86718983    0.73098012    0.64326968    -0.18070000
opls_145-177    C    0.86362984    0.77125995    0.62978008    -0.13480000
opls_145-178    C    0.87879996    0.94573989    0.42111987    -0.11400000
opls_145-179    C    0.87579992    0.98506000    0.41967938    -0.17310000
opls_145-180    C    0.85427003    0.98712992    0.50597007    0.18980000
opls_145-181    C    0.83564979    0.94958988    0.59167024    -0.17180000
opls_145-182    C    0.83956004    0.91037001    0.59606956    -0.13340000
opls_700-183    C    0.85986985    0.90785984    0.50696015    0.06050000
opls_700-184    C    0.90397995    0.86408983    0.49969021    0.06150000
opls_700-185    C    0.83105001    0.78764011    0.52471001    0.06650000
opls_700-186    C    0.86204995    0.86601985    0.50334023    -0.02950000
opls_700-187    C    0.82740993    0.83125012    0.50332985    -0.03020000
opls_145-188    C    0.72650999    0.87012988    0.36339936    -0.19050000
opls_145-189    C    0.70164997    0.84040003    0.45106932    0.19260000
opls_145-190    C    0.71759007    0.80719003    0.55287025    -0.19000000
opls_145-191    C    0.75798995    0.80410010    0.56671998    -0.13650000
opls_700-192    C    0.78366995    0.83458996    0.48200989    0.06920000
opls_145-193    C    0.76692999    0.86684992    0.37673952    -0.13480000
opls_145-194    C    0.82148980    0.13532996    0.51593004    -0.13380000
opls_145-195    C    0.82896977    0.09910005    0.50957961    -0.12750000
opls_700-196    C    0.86610992    0.10199007    0.47801012    0.05450000
opls_145-197    C    0.89590990    0.14157002    0.45466952    -0.12330000
opls_145-198    C    0.88880993    0.17770997    0.46319003    -0.13420000
opls_145-199    C    0.65989007    0.39145013    0.46223005    -0.13380000
opls_145-200    C    0.62369982    0.39895001    0.46967953    -0.13320000
opls_700-201    C    0.58735012    0.36525017    0.48754978    0.07430000
opls_145-202    C    0.58789992    0.32385995    0.49873023    -0.13430000
opls_145-203    C    0.62443002    0.31622022    0.49447931    -0.13380000
opls_145-204    C    0.86757980    0.55646988    0.54173962    -0.13470000
opls_145-205    C    0.86083988    0.59331005    0.54656964    -0.13500000
opls_700-206    C    0.82018983    0.59381016    0.54351948    0.06770000
opls_145-207    C    0.78653013    0.55687011    0.53702998    -0.13390000
opls_145-208    C    0.79333980    0.51993990    0.53358961    -0.13350000
opls_700-209    C    0.85129984    0.17514000    0.49270982    0.06630000
opls_700-210    C    0.66061002    0.34997989    0.47577984    0.06750000
opls_700-211    C    0.83385014    0.51950008    0.53506020    0.06300000
opls_145-212    C    0.92221976    0.33840001    0.64940943    -0.08580000
opls_145-213    C    0.96136980    0.33297999    0.65895946    -0.13340000
opls_700-214    C    0.97943991    0.35123997    0.54547992    0.06950000
opls_145-215    C    0.95830979    0.37668993    0.42506982    -0.12920000
opls_145-216    C    0.91904998    0.38178995    0.41562980    -0.13130000
opls_145-217    C    0.81211993    0.24889992    0.58470957    -0.13270000
opls_145-218    C    0.82050983    0.21221989    0.58534991    -0.12930000
opls_700-219    C    0.84277986    0.21399986    0.49505011    0.06730000
opls_145-220    C    0.85586984    0.25318989    0.40344993    -0.08680000
opls_145-221    C    0.84713002    0.28961995    0.40231974    -0.17160000
opls_145-222    C    0.86982995    0.44443005    0.44034966    -0.13460000
opls_145-223    C    0.86393984    0.48183011    0.44418960    -0.12800000
opls_700-224    C    0.84086986    0.48032000    0.53134999    0.07760000
opls_145-225    C    0.82467998    0.44106005    0.61648974    -0.13730000
opls_145-226    C    0.83131003    0.40391010    0.61450023    -0.13900000
opls_700-227    C    0.85237009    0.40467010    0.52233028    0.06330000
opls_700-228    C    0.90024994    0.36228996    0.52724022    0.06460000
opls_700-229    C    0.82690002    0.28853996    0.49704999    0.06030000
opls_700-230    C    0.85648980    0.36415004    0.51390940    -0.03170000
opls_700-231    C    0.82221981    0.32891991    0.50477969    -0.03060000
opls_145-232    C    0.71848993    0.36228987    0.36604996    -0.13480000
opls_700-233    C    0.69985999    0.34174006    0.47752961    0.08060000
opls_145-234    C    0.72001992    0.31471996    0.59449000    -0.13170000
opls_145-235    C    0.75916974    0.30971996    0.60250924    -0.13170000
opls_700-236    C    0.77841000    0.33062997    0.49192004    0.06030000
opls_145-237    C    0.75716983    0.35635985    0.37283005    -0.13270000
opls_145-238    C    0.37051994    0.05059011    0.53570987    -0.12740000
opls_145-239    C    0.36161982    0.08723004    0.53377953    -0.13180000
opls_700-240    C    0.32387999    0.09797996    0.44634931    0.05570000
opls_145-241    C    0.29507004    0.07135004    0.36191943    -0.13140000
opls_145-242    C    0.30332989    0.03419000    0.36636027    -0.13310000
opls_700-243    C    0.34130988    0.02323994    0.45274021    0.06040000
opls_145-244    C    0.02529975    0.30100991    0.61722970    -0.13180000
opls_145-245    C    0.06127997    0.29142003    0.61760954    -0.13530000
opls_700-246    C    0.09136005    0.32219998    0.54939978    0.05290000
opls_145-247    C    0.08491995    0.36295014    0.48117963    -0.12560000
opls_145-248    C    0.04900994    0.37271013    0.48155013    -0.12110000
opls_700-249    C    0.01868997    0.34179995    0.54950979    0.06040000
opls_145-250    C    0.51575983    0.79528007    0.47557955    -0.13380000
opls_145-251    C    0.55275002    0.78871994    0.47151025    -0.13240000
opls_700-252    C    0.58957007    0.82249998    0.46477998    0.05780000
opls_145-253    C    0.58889988    0.86302001    0.46220929    -0.13390000
opls_145-254    C    0.55201976    0.86949987    0.46767965    -0.13430000
opls_145-255    C    0.31079991    0.62660010    0.51058941    -0.13110000
opls_145-256    C    0.31844986    0.59010986    0.50614027    -0.13140000
opls_700-257    C    0.35985999    0.58966995    0.51665029    0.05590000
opls_145-258    C    0.39357001    0.62610005    0.53393935    -0.12970000
opls_145-259    C    0.38605996    0.66223003    0.54163999    -0.13750000
opls_145-260    C    0.17408993    0.89197993    0.54647001    -0.12970000
opls_145-261    C    0.13809996    0.89925992    0.55550009    -0.13470000
opls_700-262    C    0.09829974    0.86974992    0.53127942    0.06450000
opls_145-263    C    0.09504985    0.83269001    0.49845935    -0.13750000
opls_145-264    C    0.13111983    0.82501997    0.49162945    -0.13100000
opls_700-265    C    0.34458000    0.66282994    0.52888931    0.06300000
opls_700-266    C    0.51515988    0.83566002    0.47453031    0.06040000
opls_700-267    C    0.17112987    0.85456995    0.51558963    0.06610000
opls_145-268    C    0.39618997    0.33417002    0.40420027    -0.13650000
opls_145-269    C    0.43507982    0.33081002    0.40270996    -0.17730000
opls_145-270    C    0.47352998    0.35051001    0.48284948    0.18440000
opls_145-271    C    0.47282980    0.37268997    0.56953974    -0.19670000
opls_145-272    C    0.43386003    0.37479017    0.57535984    -0.18710000
opls_145-273    C    0.28844992    0.25000019    0.45019962    -0.12970000
opls_145-274    C    0.29191002    0.21079015    0.45257935    -0.18710000
opls_145-275    C    0.32876002    0.19701997    0.53396011    0.17710000
opls_145-276    C    0.36005995    0.22155996    0.62081019    -0.18880000
opls_145-277    C    0.35645990    0.26083019    0.61846990    -0.13150000
opls_145-278    C    0.37057011    0.43609005    0.43326031    -0.12120000
opls_145-279    C    0.36772985    0.47500004    0.43693938    -0.16970000
opls_145-280    C    0.34577984    0.47586005    0.52398976    0.19100000
opls_145-281    C    0.32701986    0.43761012    0.60658996    -0.17340000
opls_145-282    C    0.33129006    0.39889003    0.60740984    -0.12300000
opls_700-283    C    0.35147991    0.39734995    0.51596948    0.06710000
opls_700-284    C    0.39493000    0.35471012    0.49517984    0.06090000
opls_700-285    C    0.32179980    0.27679007    0.52623976    0.05920000
opls_700-286    C    0.35344979    0.35574991    0.50719989    -0.02720000
opls_700-287    C    0.31891007    0.32056997    0.50998021    -0.03080000
opls_145-288    C    0.21761976    0.35830988    0.38840982    -0.14090000
opls_145-289    C    0.19615991    0.33118004    0.48916982    0.19310000
opls_145-290    C    0.21425995    0.29933017    0.59197951    -0.19330000
opls_145-291    C    0.25322005    0.29534009    0.59393995    -0.17160000
opls_700-292    C    0.27572996    0.32377996    0.49744021    0.07140000
opls_145-293    C    0.25690012    0.35448008    0.39138006    -0.14120000
opls_145-294    C    0.39934999    0.83283008    0.39459939    -0.13380000
opls_145-295    C    0.43656000    0.82620990    0.39295029    -0.13480000
opls_700-296    C    0.47588991    0.84244982    0.47848026    0.06340000
opls_145-297    C    0.47740983    0.86547996    0.56593953    -0.13300000
opls_145-298    C    0.43994984    0.87134992    0.56944945    -0.12830000
opls_145-299    C    0.30442007    0.76129003    0.40379033    -0.13410000
opls_145-300    C    0.30927986    0.72216987    0.41114018    -0.12980000
opls_700-301    C    0.33637005    0.70197005    0.52788989    0.06760000
opls_145-302    C    0.35710985    0.72052008    0.63985006    -0.13480000
opls_145-303    C    0.35135006    0.75918010    0.63371965    -0.12130000
opls_145-304    C    0.37736983    0.92084983    0.59297997    -0.12980000
opls_145-305    C    0.37323002    0.96060993    0.58237966    -0.13240000
opls_700-306    C    0.34936997    0.98277003    0.45954936    0.06620000
opls_145-307    C    0.33162003    0.96471004    0.34554987    -0.13370000
opls_145-308    C    0.33561998    0.92480008    0.35697006    -0.12500000
opls_700-309    C    0.35814007    0.90218990    0.48085998    0.06730000
opls_700-310    C    0.40014000    0.85394017    0.48676933    0.05940000
opls_700-311    C    0.32557991    0.78047982    0.51481023    0.06650000
opls_700-312    C    0.35962999    0.85833995    0.49423957    -0.02960000
opls_700-313    C    0.32418988    0.82432011    0.50246950    -0.03000000
opls_145-314    C    0.24919977    0.85856999    0.60476962    -0.13480000
opls_700-315    C    0.20981008    0.84582002    0.51268996    0.06650000
opls_145-316    C    0.20763978    0.82358995    0.42154953    -0.12690000
opls_145-317    C    0.24413985    0.81488987    0.42192003    -0.13100000
opls_700-318    C    0.28397003    0.82931998    0.51014003    0.06640000
opls_145-319    C    0.28541993    0.84946014    0.60567979    -0.13280000
opls_750-320    N    0.84986998    0.02643011    0.00827974    -0.36060000
opls_750-321    N    0.33556998    0.15862987    0.03175007    -0.33650000
opls_750-322    N    0.51242973    0.34600995    0.97691989    -0.34190000
opls_750-323    N    0.84307984    0.66569999    0.06740961    -0.35010000
opls_750-324    N    0.15736989    0.33816009    0.98738943    -0.34820000
opls_750-325    N    0.02271006    0.85405009    0.99966997    -0.34440000
opls_750-326    N    0.34092983    0.51471984    0.02879954    -0.34810000
opls_750-327    N    0.66136973    0.84579001    0.93991949    -0.36040000
opls_750-328    N    0.84986987    0.02643007    0.50828026    -0.36050000
opls_750-329    N    0.33556990    0.15863022    0.53174955    -0.33650000
opls_750-330    N    0.51242984    0.34601000    0.47691937    -0.34210000
opls_750-331    N    0.84308002    0.66569994    0.56741013    -0.34990000
opls_750-332    N    0.15737007    0.33816004    0.48738995    -0.34820000
opls_750-333    N    0.02271000    0.85405000    0.49966011    -0.34440000
opls_750-334    N    0.34093012    0.51472010    0.52880006    -0.34810000
opls_750-335    N    0.66136991    0.84578997    0.43992000    -0.36030000
opls_144-336    H    0.28874996    0.14720997    0.85347001    0.11780000
opls_144-337    H    0.90171989    0.06825021    0.93542987    0.11770000
opls_144-338    H    0.13269989    0.27950002    0.11054977    0.10250000
opls_144-339    H    0.55249978    0.40386995    0.01137971    0.10390000
opls_144-340    H    0.77910006    0.63377005    0.01710952    0.10340000
opls_144-341    H    0.39854004    0.55492004    0.99269996    0.10360000
opls_144-342    H    0.62983990    0.78181006    0.99046969    0.11220000
opls_144-343    H    0.06489995    0.90541007    0.07514968    0.10220000
opls_146-344    H    0.87798995    0.83036012    0.83896957    0.11800000
opls_146-345    H    0.94754001    0.82311013    0.84985009    0.11370000
opls_146-346    H    0.00971997    0.89352004    0.15930972    0.10420000
opls_146-347    H    0.94086982    0.89944997    0.15419949    0.10790000
opls_146-348    H    0.77405975    0.77291006    0.86348913    0.11970000
opls_146-349    H    0.78096977    0.70290997    0.88382939    0.09970000
opls_146-350    H    0.89298999    0.71901990    0.22200970    0.11290000
opls_146-351    H    0.88660998    0.78989001    0.19958031    0.10510000
opls_146-352    H    0.89523990    0.94473008    0.85306007    0.11510000
opls_146-353    H    0.88921988    0.01341985    0.84852998    0.09430000
opls_146-354    H    0.81874004    0.95127999    0.15685009    0.11840000
opls_146-355    H    0.82609006    0.88189998    0.16710999    0.08950000
opls_146-356    H    0.71424976    0.89566991    0.78451923    0.10430000
opls_146-357    H    0.69931008    0.78437004    0.12379029    0.09200000
opls_146-358    H    0.76953993    0.77792989    0.14387006    0.10430000
opls_146-359    H    0.78536978    0.88978990    0.80670993    0.10430000
opls_146-360    H    0.79194992    0.13225012    0.03634969    0.11800000
opls_146-361    H    0.80553011    0.06877991    0.02780012    0.10870000
opls_146-362    H    0.92483983    0.14445004    0.93067976    0.11740000
opls_146-363    H    0.91285979    0.20764007    0.94748001    0.10890000
opls_146-364    H    0.68777995    0.41776015    0.94934913    0.10670000
opls_146-365    H    0.62397973    0.43107996    0.96103915    0.11670000
opls_146-366    H    0.56019992    0.29743011    0.01278907    0.10710000
opls_146-367    H    0.62452984    0.28403995    0.00525968    0.11910000
opls_146-368    H    0.89915981    0.55666984    0.04444989    0.11430000
opls_146-369    H    0.88712002    0.62166004    0.05063011    0.10340000
opls_146-370    H    0.75493008    0.55667001    0.03418999    0.11000000
opls_146-371    H    0.76681996    0.49183996    0.02744000    0.10450000
opls_146-372    H    0.90885011    0.32352992    0.23712038    0.24000000
opls_146-373    H    0.97742003    0.31429998    0.25504978    0.09770000
opls_146-374    H    0.97100999    0.39091004    0.83515973    0.08440000
opls_146-375    H    0.90249980    0.39905994    0.81810936    0.10430000
opls_146-376    H    0.79539989    0.24591986    0.15694038    0.23840000
opls_146-377    H    0.81044011    0.18266003    0.15908037    0.11390000
opls_146-378    H    0.87188985    0.25537008    0.82975994    0.09540000
opls_146-379    H    0.85595980    0.31888007    0.82667969    0.08750000
opls_146-380    H    0.88708977    0.44701989    0.87003986    0.10430000
opls_146-381    H    0.87649002    0.51185002    0.87656983    0.08950000
opls_146-382    H    0.80782988    0.43956992    0.18707041    0.10770000
opls_146-383    H    0.82040997    0.37445990    0.18622043    0.08740000
opls_146-384    H    0.70310987    0.38299018    0.77426971    0.09630000
opls_146-385    H    0.70638999    0.29917007    0.18248946    0.09860000
opls_146-386    H    0.77523981    0.29148991    0.19862966    0.23840000
opls_146-387    H    0.77094975    0.37255012    0.78624928    0.24000000
opls_146-388    H    0.40049986    0.04406004    0.10149996    0.11490000
opls_146-389    H    0.38440008    0.10758008    0.09913996    0.08290000
opls_146-390    H    0.26573984    0.07902996    0.79357941    0.11360000
opls_146-391    H    0.27938996    0.01370997    0.80360996    0.09250000
opls_146-392    H    0.00218997    0.27617008    0.16789043    0.11700000
opls_146-393    H    0.06554994    0.25977003    0.17088039    0.11390000
opls_146-394    H    0.10782987    0.38721013    0.92826994    0.11680000
opls_146-395    H    0.04517991    0.40455000    0.92970006    0.09200000
opls_146-396    H    0.48774003    0.76868013    0.98179973    0.10360000
opls_146-397    H    0.55268976    0.75721995    0.97400984    0.11280000
opls_146-398    H    0.61716979    0.88939003    0.95799937    0.10380000
opls_146-399    H    0.55206984    0.90098991    0.96526931    0.11320000
opls_146-400    H    0.27860996    0.62660981    0.00042032    0.11230000
opls_146-401    H    0.29204014    0.56234993    0.99255052    0.10410000
opls_146-402    H    0.42570998    0.62646999    0.04207950    0.11550000
opls_146-403    H    0.41238017    0.69016006    0.05421994    0.10590000
opls_146-404    H    0.20419994    0.91581982    0.06282970    0.10480000
opls_146-405    H    0.14126005    0.92812984    0.08046021    0.10800000
opls_146-406    H    0.06455994    0.80947010    0.97957983    0.09150000
opls_146-407    H    0.12774996    0.79555017    0.97024981    0.11160000
opls_146-408    H    0.36701978    0.31971013    0.83717933    0.05720000
opls_146-409    H    0.43583976    0.31343002    0.83737963    0.10990000
opls_146-410    H    0.50216986    0.38700999    0.13601998    0.09970000
opls_146-411    H    0.43402993    0.39140002    0.14490995    0.10750000
opls_146-412    H    0.25973980    0.25981015    0.88714939    0.11800000
opls_146-413    H    0.26564987    0.19166997    0.89079006    0.10480000
opls_146-414    H    0.38778001    0.21048986    0.18798992    0.11810000
opls_146-415    H    0.38130005    0.27928013    0.18542961    0.10440000
opls_146-416    H    0.38709994    0.43614022    0.86374963    0.11710000
opls_146-417    H    0.38137978    0.50415994    0.86881004    0.22250000
opls_146-418    H    0.30988998    0.43831992    0.17282008    0.09890000
opls_146-419    H    0.31812014    0.37006008    0.17779021    0.22240000
opls_146-420    H    0.20379986    0.38267005    0.80818986    0.09430000
opls_146-421    H    0.19922990    0.27818992    0.17304944    0.09300000
opls_146-422    H    0.26650994    0.27039987    0.17190991    0.23850000
opls_146-423    H    0.27295981    0.37586989    0.81289016    0.10430000
opls_146-424    H    0.36983994    0.82190991    0.82253982    0.10360000
opls_146-425    H    0.43506995    0.80938009    0.82220979    0.10900000
opls_146-426    H    0.50749005    0.87804986    0.13386961    0.06620000
opls_146-427    H    0.44248006    0.88860988    0.13984954    0.11680000
opls_146-428    H    0.28611994    0.77739002    0.80786918    0.10430000
opls_146-429    H    0.29358975    0.70860991    0.82277956    0.10640000
opls_146-430    H    0.37788010    0.70512001    0.23141963    0.11970000
opls_146-431    H    0.36775995    0.77292012    0.22057958    0.10970000
opls_146-432    H    0.39380985    0.90388989    0.19148011    0.10430000
opls_146-433    H    0.38720002    0.97287988    0.17324974    0.10300000
opls_146-434    H    0.31455978    0.98131999    0.74693972    0.09920000
opls_146-435    H    0.32102006    0.91157016    0.76871944    0.10980000
opls_146-436    H    0.25170985    0.87456994    0.17908956    0.11040000
opls_146-437    H    0.17792977    0.81378014    0.84743923    0.09970000
opls_146-438    H    0.24088982    0.79819009    0.84914956    0.11800000
opls_146-439    H    0.31479999    0.85787997    0.18193008    0.10650000
opls_144-440    H    0.28874978    0.14721002    0.35346949    0.11780000
opls_144-441    H    0.90171989    0.06824995    0.43542935    0.11770000
opls_144-442    H    0.13269999    0.27950007    0.61054925    0.10240000
opls_144-443    H    0.55249996    0.40386990    0.51138023    0.10390000
opls_144-444    H    0.77909995    0.63377000    0.51711004    0.10340000
opls_144-445    H    0.39853986    0.55492008    0.49269945    0.10360000
opls_144-446    H    0.62984008    0.78181002    0.49047021    0.11220000
opls_144-447    H    0.06489984    0.90541003    0.57515020    0.10220000
opls_146-448    H    0.87799013    0.83036007    0.33897009    0.11800000
opls_146-449    H    0.94754001    0.82310986    0.34984957    0.11360000
opls_146-450    H    0.00971979    0.89352008    0.65930921    0.10420000
opls_146-451    H    0.94087000    0.89944993    0.65420001    0.10790000
opls_146-452    H    0.77405993    0.77291002    0.36348965    0.11970000
opls_146-453    H    0.78096995    0.70290992    0.38382991    0.09970000
opls_146-454    H    0.89298980    0.71901994    0.72200918    0.11290000
opls_146-455    H    0.88660980    0.78989006    0.69957979    0.10410000
opls_146-456    H    0.89524001    0.94473012    0.35305955    0.11510000
opls_146-457    H    0.88921998    0.01341989    0.34852946    0.09430000
opls_146-458    H    0.81873985    0.95128003    0.65684957    0.11830000
opls_146-459    H    0.82608988    0.88190003    0.66710947    0.08950000
opls_146-460    H    0.71424994    0.89566986    0.28451975    0.10430000
opls_146-461    H    0.69930989    0.78437009    0.62378977    0.09200000
opls_146-462    H    0.76953975    0.77792994    0.64386954    0.10430000
opls_146-463    H    0.78536989    0.88978994    0.30670941    0.10430000
opls_146-464    H    0.79195011    0.13225008    0.53635021    0.11800000
opls_146-465    H    0.80552992    0.06877995    0.52779960    0.10860000
opls_146-466    H    0.92484001    0.14445000    0.43068028    0.11740000
opls_146-467    H    0.91285989    0.20764012    0.44747950    0.10890000
opls_146-468    H    0.68777985    0.41776011    0.44934965    0.10670000
opls_146-469    H    0.62397992    0.43107992    0.46103967    0.11670000
opls_146-470    H    0.56019981    0.29743007    0.51278959    0.10720000
opls_146-471    H    0.62453002    0.28403990    0.50526020    0.11910000
opls_146-472    H    0.89916002    0.55667020    0.54444937    0.11430000
opls_146-473    H    0.88711984    0.62166008    0.55062959    0.10340000
opls_146-474    H    0.75492989    0.55667005    0.53418947    0.10990000
opls_146-475    H    0.76681978    0.49184000    0.52743948    0.10450000
opls_146-476    H    0.90884993    0.32352997    0.73711986    0.24000000
opls_146-477    H    0.97741984    0.31430002    0.75504926    0.09770000
opls_146-478    H    0.97100989    0.39091000    0.33516024    0.08440000
opls_146-479    H    0.90249998    0.39905990    0.31810988    0.10430000
opls_146-480    H    0.79539999    0.24591990    0.65693986    0.23840000
opls_146-481    H    0.81043993    0.18266007    0.65907985    0.11400000
opls_146-482    H    0.87188995    0.25537012    0.32975942    0.09540000
opls_146-483    H    0.85595998    0.31888003    0.32668021    0.08740000
opls_146-484    H    0.88708988    0.44701994    0.37003934    0.10430000
opls_146-485    H    0.87648991    0.51184998    0.37657035    0.08950000
opls_146-486    H    0.80782999    0.43956996    0.68706989    0.10770000
opls_146-487    H    0.82040978    0.37445995    0.68621991    0.08740000
opls_146-488    H    0.70310994    0.38298983    0.27427023    0.09630000
opls_146-489    H    0.70638989    0.29917003    0.68248998    0.09860000
opls_146-490    H    0.77524000    0.29148986    0.69863018    0.23840000
opls_146-491    H    0.77094993    0.37255008    0.28624980    0.24000000
opls_146-492    H    0.40049996    0.04406008    0.60149944    0.11490000
opls_146-493    H    0.38439989    0.10758013    0.59913944    0.08290000
opls_146-494    H    0.26574002    0.07902992    0.29357993    0.11360000
opls_146-495    H    0.27938978    0.01371001    0.30360944    0.09250000
opls_146-496    H    0.00219008    0.27617012    0.66788991    0.11680000
opls_146-497    H    0.06555004    0.25977008    0.67087988    0.11390000
opls_146-498    H    0.10782997    0.38721018    0.42826942    0.11680000
opls_146-499    H    0.04518002    0.40455004    0.42969954    0.09200000
opls_146-500    H    0.48773993    0.76868009    0.48180025    0.10370000
opls_146-501    H    0.55268987    0.75721999    0.47400932    0.11280000
opls_146-502    H    0.61716998    0.88938999    0.45799989    0.10380000
opls_146-503    H    0.55207002    0.90098987    0.46526983    0.11320000
opls_146-504    H    0.27860978    0.62660985    0.50041980    0.11230000
opls_146-505    H    0.29203996    0.56234998    0.49255000    0.10410000
opls_146-506    H    0.42570987    0.62646995    0.54208002    0.11550000
opls_146-507    H    0.41237998    0.69016011    0.55421942    0.10590000
opls_146-508    H    0.20419998    0.91582004    0.56281984    0.10480000
opls_146-509    H    0.14125987    0.92812989    0.58045969    0.10800000
opls_146-510    H    0.06456005    0.80947014    0.47957931    0.09150000
opls_146-511    H    0.12774996    0.79554991    0.47024930    0.11170000
opls_146-512    H    0.36701996    0.31971009    0.33717985    0.05730000
opls_146-513    H    0.43583994    0.31342998    0.33738014    0.10990000
opls_146-514    H    0.50216996    0.38701003    0.63601946    0.09970000
opls_146-515    H    0.43403003    0.39140006    0.64490943    0.10750000
opls_146-516    H    0.25973998    0.25981010    0.38714990    0.11800000
opls_146-517    H    0.26564998    0.19167001    0.39078954    0.10480000
opls_146-518    H    0.38777993    0.21049021    0.68798940    0.11800000
opls_146-519    H    0.38129995    0.27928009    0.68543013    0.10440000
opls_146-520    H    0.38710001    0.43613986    0.36375015    0.11700000
opls_146-521    H    0.38137988    0.50415998    0.36880953    0.22240000
opls_146-522    H    0.30988979    0.43831996    0.67281956    0.09890000
opls_146-523    H    0.31811995    0.37006013    0.67778969    0.22250000
opls_146-524    H    0.20380005    0.38267000    0.30819038    0.09430000
opls_146-525    H    0.19922990    0.27819018    0.67304996    0.09300000
opls_146-526    H    0.26650986    0.27040022    0.67190939    0.23840000
opls_146-527    H    0.27295991    0.37586993    0.31288964    0.10430000
opls_146-528    H    0.36983983    0.82190986    0.32254034    0.10360000
opls_146-529    H    0.43507013    0.80938005    0.32221031    0.10900000
opls_146-530    H    0.50748994    0.87804982    0.63387013    0.06630000
opls_146-531    H    0.44247995    0.88860984    0.63985006    0.11670000
opls_146-532    H    0.28611984    0.77738998    0.30786970    0.10430000
opls_146-533    H    0.29358993    0.70860987    0.32278007    0.10640000
opls_146-534    H    0.37787999    0.70511997    0.73142014    0.11970000
opls_146-535    H    0.36775985    0.77292008    0.72058010    0.10970000
opls_146-536    H    0.39380995    0.90388994    0.69147959    0.10440000
opls_146-537    H    0.38719984    0.97287992    0.67324922    0.10300000
opls_146-538    H    0.31455996    0.98131995    0.24694024    0.09920000
opls_146-539    H    0.32101985    0.91156981    0.26871996    0.10980000
opls_146-540    H    0.25171003    0.87456989    0.67909008    0.11040000
opls_146-541    H    0.17792995    0.81378010    0.34743975    0.09970000
opls_146-542    H    0.24089000    0.79819005    0.34915008    0.11800000
opls_146-543    H    0.31479981    0.85788002    0.68192956    0.10660000
