#======================================================================
# Crystal Data Generated By AuToFF
#----------------------------------------------------------------------

data_AuToFF_phase_1

_cell_length_a                         75.8531
_cell_length_b                         75.9008
_cell_length_c                         7.0555
_cell_angle_alpha                      90.00
_cell_angle_beta                       90.00
_cell_angle_gamma                      119.96
_symmetry_space_group_name_H-M_alt     'P 1'
_symmetry_space_group_IT_number        1

loop_
_space_group_symop_operation_xyz
   'x, y, z'

loop_
   _atom_site_label
   _atom_site_type_symbol
   _atom_site_fract_x
   _atom_site_fract_y
   _atom_site_fract_z
   _atom_site_charge
opls_145-0    C    0.00927002    0.48696995    0.38131954    -0.12590000
opls_700-1    C    0.02185994    0.50800000    0.36196017    0.04170000
opls_166-2    C    0.01326994    0.52068994    0.35161930    0.27620000
opls_261-3    C    0.04348002    0.51629997    0.34366948    -0.11380000
opls_261-4    C    0.06158998    0.52343992    0.32737014    -0.10490000
opls_700-5    C    0.08321993    0.53220995    0.30762951    0.12630000
opls_145-6    C    0.09182001    0.51968000    0.29507051    -0.11550000
opls_145-7    C    0.11288999    0.52826998    0.27657005    -0.12330000
opls_700-8    C    0.12555992    0.54947994    0.27022040    0.06910000
opls_145-9    C    0.11677995    0.56197993    0.28245057    -0.12720000
opls_145-10    C    0.09572993    0.55335999    0.30107009    -0.11580000
opls_142-11    C    0.14775998    0.55822002    0.25169017    0.07230000
opls_145-12    C    0.49093007    0.01182006    0.30134930    -0.11940000
opls_166-13    C    0.52060003    0.00762004    0.27096024    0.07230000
opls_700-14    C    0.51200992    0.02037993    0.28249026    0.02800000
opls_261-15    C    0.52442998    0.04213006    0.26641060    -0.11380000
opls_261-16    C    0.53496997    0.06031995    0.25335979    -0.11210000
opls_700-17    C    0.54778003    0.08199997    0.23877968    0.12090000
opls_145-18    C    0.56883000    0.09048000    0.21873999    -0.11760000
opls_145-19    C    0.58139001    0.11156997    0.20752037    -0.12220000
opls_700-20    C    0.57303994    0.12439997    0.21616044    0.06980000
opls_145-21    C    0.55184001    0.11575996    0.23525051    -0.12850000
opls_145-22    C    0.53930004    0.09465995    0.24652966    -0.11620000
opls_142-23    C    0.58669005    0.14662001    0.20672950    0.07160000
opls_531-24    C    0.31266992    0.65546996    0.17580044    0.36020000
opls_700-25    C    0.35433005    0.70936001    0.17913968    0.00060000
opls_523-26    C    0.37515994    0.72065998    0.13577068    -0.12070000
opls_145-27    C    0.38544000    0.74189001    0.14079938    -0.12440000
opls_700-28    C    0.37519991    0.75234991    0.19173978    0.07000000
opls_145-29    C    0.35434989    0.74098987    0.23563036    -0.12540000
opls_523-30    C    0.34400998    0.71976988    0.22815959    -0.12360000
opls_700-31    C    0.38620994    0.77496991    0.20022961    0.06970000
opls_145-32    C    0.40667999    0.78590991    0.25823967    -0.12330000
opls_145-33    C    0.41698002    0.80712002    0.26632981    -0.16640000
opls_145-34    C    0.40705988    0.81789988    0.22000000    0.19470000
opls_145-35    C    0.38665995    0.80708991    0.15985968    -0.16490000
opls_145-36    C    0.37637989    0.78586991    0.15003047    -0.12630000
opls_531-37    C    0.65656997    0.31189998    0.21930976    0.36140000
opls_700-38    C    0.64512999    0.35409999    0.23185033    -0.00210000
opls_523-39    C    0.65497004    0.37494999    0.18933031    -0.11810000
opls_145-40    C    0.64425004    0.38547999    0.19261994    -0.12460000
opls_700-41    C    0.62348999    0.37549001    0.24133938    0.07030000
opls_145-42    C    0.61371994    0.35462997    0.28498051    -0.12460000
opls_523-43    C    0.62437004    0.34403001    0.27888031    -0.12020000
opls_700-44    C    0.61210002    0.38674997    0.24702998    0.06940000
opls_145-45    C    0.62176005    0.40724001    0.30424066    -0.12540000
opls_145-46    C    0.61105000    0.41777990    0.30897031    -0.16800000
opls_145-47    C    0.59043990    0.40807992    0.26000992    0.19470000
opls_145-48    C    0.58071997    0.38764996    0.20086032    -0.16590000
opls_145-49    C    0.59146003    0.37714002    0.19444972    -0.12560000
opls_181-50    C    0.44585004    0.48462997    0.35471051    -0.19510000
opls_181-51    C    0.46837999    0.44615002    0.40625044    -0.19500000
opls_145-52    C    0.51215995    0.52047003    0.28514067    -0.11710000
opls_700-53    C    0.49111005    0.51181999    0.26248033    -0.00470000
opls_166-54    C    0.47860992    0.49045993    0.25258026    0.07230000
opls_261-55    C    0.48274992    0.52507990    0.24064063    -0.11350000
opls_261-56    C    0.47565995    0.53607997    0.22281057    -0.11210000
opls_700-57    C    0.46700006    0.54905002    0.20268018    0.12100000
opls_145-58    C    0.47961999    0.56998001    0.17597052    -0.11540000
opls_145-59    C    0.47115996    0.58259999    0.15964992    -0.12460000
opls_700-60    C    0.44999994    0.57439993    0.16977960    0.07630000
opls_145-61    C    0.43741002    0.55332000    0.19539933    -0.12670000
opls_145-62    C    0.44589004    0.54074001    0.21178938    -0.11760000
opls_142-63    C    0.44141005    0.58804003    0.15542059    0.07220000
opls_145-64    C    0.98781000    0.47765989    0.38421940    -0.12580000
opls_166-65    C    0.99161998    0.51130004    0.35433066    0.27620000
opls_700-66    C    0.97908001    0.49003990    0.36768053    0.04190000
opls_261-67    C    0.95729995    0.48071996    0.35538941    -0.11380000
opls_261-68    C    0.93908994    0.47309991    0.34412019    -0.08990000
opls_700-69    C    0.91739003    0.46425004    0.33034937    0.12630000
opls_145-70    C    0.90875001    0.47677999    0.32994968    -0.11760000
opls_145-71    C    0.88766007    0.46824004    0.31697966    -0.12230000
opls_700-72    C    0.87498000    0.44706993    0.30438948    0.06990000
opls_145-73    C    0.88376998    0.43455990    0.30447027    -0.12820000
opls_145-74    C    0.90487998    0.44313999    0.31730990    -0.11550000
opls_142-75    C    0.85274004    0.43843995    0.29187017    0.07220000
opls_531-76    C    0.34407995    0.65610990    0.16442066    0.33990000
opls_700-77    C    0.29018000    0.64390995    0.18213025    -0.00210000
opls_523-78    C    0.27889006    0.65351001    0.14134930    -0.12020000
opls_145-79    C    0.25765006    0.64261001    0.14734037    -0.12460000
opls_700-80    C    0.24717988    0.62188989    0.19703069    0.06940000
opls_145-81    C    0.25853998    0.61234001    0.23872015    -0.12540000
opls_523-82    C    0.27978003    0.62317994    0.22994968    -0.12240000
opls_700-83    C    0.22454001    0.61033003    0.20667990    0.07000000
opls_145-84    C    0.21366994    0.61987991    0.26631989    -0.12530000
opls_145-85    C    0.19244996    0.60897990    0.27695982    -0.16640000
opls_145-86    C    0.18160988    0.58828989    0.23137977    0.19480000
opls_145-87    C    0.19235002    0.57870001    0.16886968    -0.16500000
opls_145-88    C    0.21356994    0.58962998    0.15656013    -0.12680000
opls_531-89    C    0.68760991    0.34301993    0.22781943    0.34380000
opls_700-90    C    0.64535005    0.28941000    0.21430940    0.00070000
opls_523-91    C    0.62457995    0.27864990    0.16768053    -0.12070000
opls_145-92    C    0.61396997    0.25740999    0.16329955    -0.12330000
opls_700-93    C    0.62381006    0.24640003    0.20796967    0.06980000
opls_145-94    C    0.64459996    0.25722005    0.25523067    -0.12540000
opls_523-95    C    0.65526992    0.27845996    0.25712990    -0.12230000
opls_700-96    C    0.61245001    0.22377000    0.20647013    0.07000000
opls_145-97    C    0.59190997    0.21284003    0.26224931    -0.12450000
opls_145-98    C    0.58135001    0.19159996    0.26270002    -0.16830000
opls_145-99    C    0.59104996    0.18076991    0.21030969    0.19640000
opls_145-100    C    0.61152005    0.19161000    0.15177946    -0.16500000
opls_145-101    C    0.62206002    0.21285995    0.14990008    -0.12560000
opls_181-102    C    0.52074001    0.96732994    0.41770959    -0.19510000
opls_181-103    C    0.55491994    0.02894999    0.38125009    -0.19510000
opls_145-104    C    0.47828991    0.99075990    0.30389058    -0.11970000
opls_700-105    C    0.48655999    0.97801993    0.28679045    0.04060000
opls_166-106    C    0.50773991    0.98640993    0.27157962    0.10220000
opls_261-107    C    0.47323999    0.95632987    0.28068032    -0.11380000
opls_261-108    C    0.46226989    0.93815990    0.27455035    -0.09730000
opls_700-109    C    0.44939991    0.91644992    0.26625044    0.13520000
opls_145-110    C    0.42821993    0.90775988    0.26579973    -0.11510000
opls_145-111    C    0.41574001    0.88663995    0.25644958    -0.12440000
opls_700-112    C    0.42430998    0.87399990    0.24735029    0.07630000
opls_145-113    C    0.44563002    0.88284992    0.24806038    -0.12720000
opls_145-114    C    0.45806995    0.90397000    0.25746014    -0.11760000
opls_142-115    C    0.41084990    0.85174989    0.23680958    0.07120000
opls_145-116    C    0.52093992    0.50814995    0.29383035    -0.11150000
opls_166-117    C    0.48757994    0.47814000    0.25919070    0.10220000
opls_700-118    C    0.50877000    0.48703991    0.27914960    0.04110000
opls_261-119    C    0.51814991    0.47458995    0.28048048    -0.11380000
opls_261-120    C    0.52577996    0.46397995    0.28084048    -0.08980000
opls_700-121    C    0.53467996    0.45112000    0.28022961    0.12630000
opls_145-122    C    0.52214992    0.42996996    0.28402948    -0.11760000
opls_145-123    C    0.53072995    0.41741993    0.28130962    -0.12220000
opls_700-124    C    0.55194003    0.42588004    0.27478988    0.07140000
opls_145-125    C    0.56444994    0.44715995    0.27150025    -0.12820000
opls_145-126    C    0.55582996    0.45969994    0.27419035    -0.11610000
opls_142-127    C    0.56061003    0.41228997    0.27051945    0.07120000
opls_531-128    C    0.34343990    0.68686989    0.17431933    0.36030000
opls_700-129    C    0.35568006    0.64520001    0.15844944    0.00070000
opls_523-130    C    0.34596996    0.62444992    0.11174970    -0.12240000
opls_145-131    C    0.35688996    0.61411990    0.10734037    -0.12330000
opls_700-132    C    0.37774999    0.62421999    0.15200057    0.07030000
opls_145-133    C    0.38742998    0.64500003    0.19890015    -0.12680000
opls_523-134    C    0.37655996    0.65538997    0.20086032    -0.12240000
opls_700-135    C    0.38929993    0.61310996    0.15160938    0.07030000
opls_145-136    C    0.37991991    0.59261993    0.20805046    -0.12240000
opls_145-137    C    0.39084994    0.58229994    0.21009992    -0.16600000
opls_145-138    C    0.41140000    0.59217998    0.15875983    0.19470000
opls_145-139    C    0.42083002    0.61260994    0.09969953    -0.16500000
opls_145-140    C    0.40985998    0.62291001    0.09604989    -0.12820000
opls_531-141    C    0.65644998    0.34292002    0.22772022    0.35760000
opls_700-142    C    0.71012999    0.35432004    0.23240026    0.00070000
opls_523-143    C    0.72115993    0.34450996    0.18917015    -0.12070000
opls_145-144    C    0.74241001    0.35516999    0.19402027    -0.12460000
opls_700-145    C    0.75315003    0.37586001    0.24460067    0.07030000
opls_145-146    C    0.74204993    0.38563998    0.28822054    -0.12450000
opls_523-147    C    0.72080996    0.37502998    0.28097938    -0.12360000
opls_700-148    C    0.77579000    0.38715997    0.25309050    0.07030000
opls_145-149    C    0.78647996    0.37738000    0.31138970    -0.12540000
opls_145-150    C    0.80772000    0.38801996    0.31964000    -0.16600000
opls_145-151    C    0.81874998    0.40868001    0.27326058    0.19490000
opls_145-152    C    0.80818000    0.41851990    0.21274042    -0.16500000
opls_145-153    C    0.78694001    0.40783994    0.20269010    -0.12720000
opls_181-154    C    0.03557996    0.55295000    0.48569060    -0.19510000
opls_181-155    C    0.97543004    0.52799001    0.49244986    -0.19540000
opls_166-156    C    0.00834006    0.48364999    0.84889944    0.27000000
opls_700-157    C    0.02094999    0.50497994    0.86095954    0.02410000
opls_145-158    C    0.01224998    0.51732998    0.88216002    -0.12900000
opls_261-159    C    0.04270988    0.51450990    0.84216002    -0.11350000
opls_261-160    C    0.06090996    0.52236991    0.82617958    -0.11210000
opls_700-161    C    0.08259993    0.53155998    0.80706966    0.12630000
opls_145-162    C    0.09149996    0.51928993    0.79555949    -0.11760000
opls_145-163    C    0.11257994    0.52815000    0.77769967    -0.11730000
opls_700-164    C    0.12500006    0.54938003    0.77104954    0.07070000
opls_145-165    C    0.11594999    0.56163001    0.78226065    -0.12820000
opls_145-166    C    0.09485003    0.55272994    0.80015024    -0.11580000
opls_142-167    C    0.14724001    0.55834001    0.75331018    0.07120000
opls_166-168    C    0.48863002    0.01215995    0.76989016    0.07230000
opls_145-169    C    0.51858006    0.00846999    0.80264049    -0.11710000
opls_700-170    C    0.50998999    0.02095006    0.78256963    0.03040000
opls_261-171    C    0.52331998    0.04258994    0.76650982    -0.11350000
opls_261-172    C    0.53442004    0.06069999    0.75349018    -0.08990000
opls_700-173    C    0.54751003    0.08234001    0.73899936    0.13950000
opls_145-174    C    0.56853007    0.09062006    0.71839983    -0.11550000
opls_145-175    C    0.58127002    0.11168996    0.70691942    -0.12360000
opls_700-176    C    0.57310999    0.12468998    0.71585997    0.07070000
opls_145-177    C    0.55195001    0.11624994    0.73561052    -0.12720000
opls_145-178    C    0.53925001    0.09518005    0.74716037    -0.11760000
opls_142-179    C    0.58686002    0.14689998    0.70592020    0.07120000
opls_531-180    C    0.31201998    0.65581000    0.67531004    0.36040000
opls_700-181    C    0.35384007    0.70965002    0.67986961    0.00050000
opls_523-182    C    0.37469002    0.72083000    0.63660974    -0.12030000
opls_145-183    C    0.38508997    0.74205988    0.64162993    -0.12460000
opls_700-184    C    0.37496002    0.75263992    0.69240026    0.07000000
opls_145-185    C    0.35411004    0.74138998    0.73639997    -0.12540000
opls_523-186    C    0.34365003    0.72016999    0.72900999    -0.11730000
opls_700-187    C    0.38609990    0.77525992    0.70035008    0.07030000
opls_145-188    C    0.40657993    0.78610989    0.75821983    -0.12460000
opls_145-189    C    0.41697996    0.80732988    0.76607044    -0.16630000
opls_145-190    C    0.40715998    0.81818989    0.71963008    0.19480000
opls_145-191    C    0.38674994    0.80746994    0.65939055    -0.16490000
opls_145-192    C    0.37637997    0.78623991    0.64978953    -0.12680000
opls_531-193    C    0.65597005    0.31220002    0.71910991    0.36020000
opls_700-194    C    0.64439997    0.35432993    0.73230955    -0.00080000
opls_523-195    C    0.65423001    0.37518996    0.69009000    -0.12220000
opls_145-196    C    0.64350000    0.38571997    0.69334987    -0.12460000
opls_700-197    C    0.62272991    0.37570991    0.74155056    0.06980000
opls_145-198    C    0.61295993    0.35483999    0.78489972    -0.12720000
opls_523-199    C    0.62363000    0.34424991    0.77901070    -0.12240000
opls_700-200    C    0.61133000    0.38697003    0.74697045    0.07150000
opls_145-201    C    0.62097994    0.40745991    0.80421940    -0.12440000
opls_145-202    C    0.61027999    0.41799995    0.80877046    -0.16800000
opls_145-203    C    0.58967002    0.40832005    0.75982992    0.19470000
opls_145-204    C    0.57995002    0.38788993    0.70070016    -0.16490000
opls_145-205    C    0.59068994    0.37736996    0.69420027    -0.12630000
opls_166-206    C    0.51426001    0.52310003    0.75829070    0.27320000
opls_700-207    C    0.49286995    0.51438002    0.76326979    0.03700000
opls_145-208    C    0.48041002    0.49333993    0.78252002    -0.11380000
opls_261-209    C    0.48342999    0.52664992    0.74026929    -0.11350000
opls_261-210    C    0.47565992    0.53704990    0.72188931    -0.09730000
opls_700-211    C    0.46663004    0.54967003    0.70151938    0.12630000
opls_145-212    C    0.47902995    0.57064990    0.67545036    -0.11760000
opls_145-213    C    0.47034994    0.58304998    0.65970945    -0.12060000
opls_700-214    C    0.44915991    0.57460995    0.66980937    0.06980000
opls_145-215    C    0.43676001    0.55349002    0.69466941    -0.12820000
opls_145-216    C    0.44547997    0.54109998    0.71048969    -0.11540000
opls_142-217    C    0.44042001    0.58810998    0.65638013    0.07100000
opls_166-218    C    0.98670005    0.47426998    0.85159946    0.27000000
opls_145-219    C    0.99078995    0.50801992    0.88504004    -0.12900000
opls_700-220    C    0.97812991    0.48700995    0.86654950    0.02570000
opls_261-221    C    0.95648994    0.47891999    0.85355963    -0.11380000
opls_261-222    C    0.93836999    0.47202991    0.84246049    -0.08990000
opls_700-223    C    0.91672006    0.46357999    0.82917015    0.12090000
opls_145-224    C    0.90836002    0.47636999    0.82844022    -0.11550000
opls_145-225    C    0.88729003    0.46809998    0.81572957    -0.12330000
opls_700-226    C    0.87437003    0.44695997    0.80363971    0.07070000
opls_145-227    C    0.88288993    0.43420997    0.80427043    -0.12540000
opls_145-228    C    0.90394998    0.44250994    0.81693005    -0.11760000
opls_142-229    C    0.85217003    0.43854002    0.79077032    0.07230000
opls_531-230    C    0.34337994    0.65633999    0.66411027    0.35760000
opls_700-231    C    0.28952993    0.64424999    0.68150946    0.00030000
opls_523-232    C    0.27821995    0.65384002    0.64098930    -0.12070000
opls_145-233    C    0.25697992    0.64290990    0.64738998    -0.12460000
opls_700-234    C    0.24652999    0.62218993    0.69710013    0.07030000
opls_145-235    C    0.25791995    0.61264994    0.73819006    -0.12540000
opls_523-236    C    0.27914999    0.62350995    0.72912054    -0.12240000
opls_700-237    C    0.22391002    0.61061000    0.70755014    0.06980000
opls_145-238    C    0.21301000    0.62011000    0.76790022    -0.12540000
opls_145-239    C    0.19178995    0.60917000    0.77870030    -0.16580000
opls_145-240    C    0.18098006    0.58849002    0.73273049    0.19470000
opls_145-241    C    0.19175001    0.57893999    0.66982071    -0.16490000
opls_145-242    C    0.21295998    0.58990995    0.65728014    -0.12630000
opls_531-243    C    0.68695997    0.34335997    0.72843030    0.36040000
opls_700-244    C    0.64486008    0.28971005    0.71375948    0.00070000
opls_523-245    C    0.62410001    0.27882996    0.66684998    -0.12210000
opls_145-246    C    0.61364006    0.25759005    0.66238963    -0.12560000
opls_700-247    C    0.62360992    0.24670996    0.70731061    0.06990000
opls_145-248    C    0.64439004    0.25764996    0.75464956    -0.12330000
opls_523-249    C    0.65491005    0.27889003    0.75656013    -0.12240000
opls_700-250    C    0.61238006    0.22407004    0.70632981    0.07030000
opls_145-251    C    0.59185000    0.21305005    0.76208065    -0.12240000
opls_145-252    C    0.58140000    0.19182002    0.76275955    -0.16570000
opls_145-253    C    0.59120005    0.18107999    0.71068953    0.19440000
opls_145-254    C    0.61167002    0.19199004    0.65254057    -0.16500000
opls_145-255    C    0.62211007    0.21325003    0.65039048    -0.12820000
opls_166-256    C    0.47627995    0.99087989    0.77048969    0.10190000
opls_700-257    C    0.48513994    0.97851996    0.78680037    0.04060000
opls_145-258    C    0.50621997    0.98737987    0.80506980    -0.12040000
opls_261-259    C    0.47270997    0.95671995    0.78062930    -0.11370000
opls_261-260    C    0.46216996    0.93848991    0.77451067    -0.08970000
opls_700-261    C    0.44944993    0.91676000    0.76628021    0.12630000
opls_145-262    C    0.42826005    0.90800000    0.76669974    -0.11620000
opls_145-263    C    0.41583990    0.88687992    0.75741053    -0.12240000
opls_700-264    C    0.42447997    0.87429994    0.74761959    0.06990000
opls_145-265    C    0.44579990    0.88321992    0.74745943    -0.12820000
opls_145-266    C    0.45819994    0.90434989    0.75670045    -0.11620000
opls_142-267    C    0.41103992    0.85204994    0.73733966    0.07120000
opls_166-268    C    0.52280000    0.51029999    0.76708950    0.07100000
opls_145-269    C    0.48890989    0.48078991    0.79076040    -0.12290000
opls_700-270    C    0.50997992    0.48913991    0.78010063    0.04130000
opls_261-271    C    0.51841992    0.47584989    0.78182978    -0.11380000
opls_261-272    C    0.52559005    0.46482001    0.78190064    -0.11210000
opls_700-273    C    0.53426994    0.45176997    0.78069024    0.14740000
opls_145-274    C    0.52162996    0.43062996    0.78367940    -0.11510000
opls_145-275    C    0.53009004    0.41795995    0.78061937    -0.12240000
opls_700-276    C    0.55127996    0.42629004    0.77444972    0.07630000
opls_145-277    C    0.56389995    0.44756995    0.77187017    -0.12810000
opls_145-278    C    0.55541001    0.46021000    0.77495996    -0.11580000
opls_142-279    C    0.55986001    0.41260994    0.76973000    0.07180000
opls_531-280    C    0.34285006    0.68715001    0.67467933    0.34400000
opls_700-281    C    0.35491991    0.64538995    0.65807951    0.00030000
opls_523-282    C    0.34516006    0.62464002    0.61116009    -0.12440000
opls_145-283    C    0.35604002    0.61425996    0.60691942    -0.12330000
opls_700-284    C    0.37688006    0.62431001    0.65214939    0.06990000
opls_145-285    C    0.38660993    0.64508990    0.69916944    -0.12540000
opls_523-286    C    0.37578996    0.65552988    0.70079938    -0.12070000
opls_700-287    C    0.38837995    0.61316000    0.65219049    0.06980000
opls_145-288    C    0.37897000    0.59266997    0.70878038    -0.12240000
opls_145-289    C    0.38986001    0.58232002    0.71098009    -0.16580000
opls_145-290    C    0.41040992    0.59216994    0.65938063    0.19640000
opls_145-291    C    0.41985998    0.61259990    0.60014032    -0.16500000
opls_145-292    C    0.40892996    0.62292993    0.59665934    -0.12560000
opls_531-293    C    0.65574997    0.34317991    0.72814967    0.36040000
opls_700-294    C    0.70946995    0.35465993    0.73314010    0.00040000
opls_523-295    C    0.72047999    0.34482005    0.68960952    -0.11810000
opls_145-296    C    0.74172003    0.35546000    0.69402027    -0.12360000
opls_700-297    C    0.75248998    0.37615001    0.74460067    0.07110000
opls_145-298    C    0.74141994    0.38594002    0.78888952    -0.12540000
opls_523-299    C    0.72017004    0.37535998    0.78196017    -0.12440000
opls_700-300    C    0.77513000    0.38740998    0.75229962    0.06940000
opls_145-301    C    0.78578995    0.37757998    0.80991992    -0.12360000
opls_145-302    C    0.80702003    0.38818998    0.81801998    -0.16800000
opls_145-303    C    0.81808007    0.40885003    0.77205017    0.19480000
opls_145-304    C    0.80754999    0.41873995    0.71186025    -0.16450000
opls_145-305    C    0.78630995    0.40809999    0.70201970    -0.12820000
opls_181-306    C    0.55639992    0.53339994    0.88331940    -0.19510000
opls_181-307    C    0.52662991    0.55765992    0.85772943    -0.19510000
opls_181-308    C    0.44371999    0.97691997    0.91500957    -0.19500000
opls_181-309    C    0.48231002    0.03801003    0.87971937    -0.18430000
opls_181-310    C    0.96009002    0.44201996    0.96680037    -0.19510000
opls_181-311    C    0.02963005    0.47025002    0.95818014    -0.19500000
opls_750-312    N    0.57947006    0.15893006    0.21652045    -0.33360000
opls_750-313    N    0.15982991    0.57780992    0.24825030    -0.33360000
opls_520-314    N    0.32278997    0.67611998    0.17844944    -0.43940000
opls_520-315    N    0.64628998    0.32228004    0.22220962    -0.44120000
opls_750-316    N    0.84055990    0.41888990    0.28592020    -0.34080000
opls_750-317    N    0.42189003    0.58081994    0.16774998    -0.33360000
opls_520-318    N    0.32342002    0.64557001    0.16886968    -0.43940000
opls_520-319    N    0.67723990    0.32236991    0.22231025    -0.47510000
opls_750-320    N    0.58018997    0.41967004    0.26719014    -0.34080000
opls_750-321    N    0.41839997    0.83970993    0.23186025    -0.34080000
opls_520-322    N    0.35397997    0.67675991    0.16739990    -0.43940000
opls_520-323    N    0.67711001    0.35318997    0.23045992    -0.43940000
opls_750-324    N    0.57968994    0.15923999    0.71697966    -0.33360000
opls_750-325    N    0.15917996    0.57793994    0.74929062    -0.33360000
opls_520-326    N    0.32217998    0.67646002    0.67848062    -0.47530000
opls_520-327    N    0.64562999    0.32253005    0.72216994    -0.47530000
opls_750-328    N    0.83987996    0.41901003    0.78497059    -0.34510000
opls_750-329    N    0.42089000    0.58078999    0.66794983    -0.33360000
opls_520-330    N    0.32272003    0.64586001    0.66822054    -0.43940000
opls_520-331    N    0.67662002    0.32271999    0.72242931    -0.44140000
opls_750-332    N    0.57942997    0.41991990    0.76718021    -0.33340000
opls_750-333    N    0.41857997    0.83999994    0.73141946    -0.34080000
opls_520-334    N    0.35332992    0.67697996    0.66759974    -0.44130000
opls_520-335    N    0.67642004    0.35349002    0.73122954    -0.47190000
opls_179-336    O    0.51605993    0.97376988    0.24454964    -0.17860000
opls_179-337    O    0.98316993    0.52381995    0.32451988    -0.19260000
opls_179-338    O    0.02555000    0.54161992    0.31974063    -0.17980000
opls_179-339    O    0.47542996    0.45711998    0.23291050    -0.17850000
opls_179-340    O    0.45759996    0.48109999    0.21735951    -0.19820000
opls_179-341    O    0.54149001    0.01539003    0.23982000    -0.19810000
opls_179-342    O    0.01633994    0.47072997    0.81701935    -0.19860000
opls_179-343    O    0.47934999    0.02394002    0.73802991    -0.14940000
opls_179-344    O    0.52714001    0.54392995    0.72191057    -0.20000000
opls_179-345    O    0.97463002    0.45320997    0.82210049    -0.19810000
opls_179-346    O    0.45528993    0.98212992    0.74240947    -0.21390000
opls_179-347    O    0.54386996    0.51814997    0.74884983    -0.19820000
opls_146-348    H    0.01576001    0.47712003    0.39155978    0.12080000
opls_146-349    H    0.08225000    0.50328992    0.29979023    0.11620000
opls_146-350    H    0.11929999    0.51835999    0.26730069    0.11990000
opls_146-351    H    0.12615999    0.57837001    0.27797038    0.12260000
opls_146-352    H    0.08919993    0.56317996    0.31069945    0.12080000
opls_144-353    H    0.15375997    0.54795995    0.24620934    0.12310000
opls_146-354    H    0.48421002    0.02145997    0.31248955    0.11710000
opls_146-355    H    0.57554002    0.08082002    0.21238041    0.11940000
opls_146-356    H    0.59765997    0.11785996    0.19260010    0.11490000
opls_146-357    H    0.54497003    0.12528003    0.24235986    0.11800000
opls_146-358    H    0.52302000    0.08822001    0.26216002    0.11520000
opls_144-359    H    0.60287998    0.15238002    0.19670045    0.12460000
opls_526-360    H    0.38349995    0.71310989    0.09531004    0.11800000
opls_146-361    H    0.40134992    0.75008991    0.10172064    0.12370000
opls_146-362    H    0.34604003    0.74845997    0.27968960    0.11800000
opls_526-363    H    0.32799991    0.71151994    0.26437956    0.11840000
opls_146-364    H    0.41466995    0.77808989    0.30122032    0.11960000
opls_146-365    H    0.43268991    0.81522990    0.31225002    0.12250000
opls_146-366    H    0.37867992    0.81485990    0.11563036    0.12080000
opls_146-367    H    0.36086001    0.77804001    0.09889023    0.12210000
opls_526-368    H    0.67089998    0.38307994    0.15034937    0.11990000
opls_146-369    H    0.65218005    0.40140001    0.15372971    0.12250000
opls_146-370    H    0.59790001    0.34650991    0.32746935    0.11950000
opls_526-371    H    0.61640005    0.32801997    0.31456027    0.11990000
opls_146-372    H    0.63750999    0.41506991    0.34900007    0.11950000
opls_146-373    H    0.61875998    0.43350997    0.35406987    0.11940000
opls_146-374    H    0.56506003    0.37985001    0.15443980    0.12240000
opls_146-375    H    0.58368994    0.36160993    0.14372050    0.11950000
opls_185-376    H    0.43391006    0.46978999    0.41151017    0.09010000
opls_185-377    H    0.43832002    0.49222993    0.28500035    0.07440000
opls_185-378    H    0.45503000    0.49410989    0.47586989    0.07460000
opls_185-379    H    0.48138998    0.44817992    0.49467933    0.07480000
opls_185-380    H    0.45875005    0.42972998    0.37377932    0.07440000
opls_185-381    H    0.45902995    0.45118995    0.48594997    0.08500000
opls_146-382    H    0.52186006    0.53683000    0.29398058    0.12110000
opls_146-383    H    0.49598003    0.57654997    0.16842038    0.11770000
opls_146-384    H    0.48115992    0.59877990    0.13968960    0.11960000
opls_146-385    H    0.42104000    0.54654990    0.20386932    0.11800000
opls_146-386    H    0.43598994    0.52455995    0.23263978    0.11840000
opls_144-387    H    0.45178005    0.60416002    0.13966976    0.11730000
opls_146-388    H    0.97828998    0.46132000    0.39671037    0.11960000
opls_146-389    H    0.91832000    0.49313995    0.33998016    0.11490000
opls_146-390    H    0.88122997    0.47816995    0.31715966    0.11520000
opls_146-391    H    0.87438002    0.41819004    0.29463964    0.12020000
opls_146-392    H    0.91145006    0.43332003    0.31719935    0.11740000
opls_144-393    H    0.84681997    0.44878001    0.29323932    0.12090000
opls_526-394    H    0.28645001    0.66941999    0.10182978    0.11520000
opls_146-395    H    0.24944999    0.65038000    0.10994968    0.12260000
opls_146-396    H    0.25108001    0.59655990    0.28193041    0.12260000
opls_526-397    H    0.28805003    0.61539003    0.26433988    0.11800000
opls_146-398    H    0.22152996    0.63567993    0.30922968    0.12250000
opls_146-399    H    0.18440989    0.61658991    0.32478067    0.12250000
opls_146-400    H    0.18454005    0.56295002    0.12520020    0.12340000
opls_146-401    H    0.22133998    0.58192994    0.10397987    0.12210000
opls_526-402    H    0.61654997    0.28663995    0.13182057    0.12000000
opls_146-403    H    0.59812000    0.24965004    0.12193041    0.11930000
opls_146-404    H    0.65260004    0.24929996    0.29462972    0.12260000
opls_526-405    H    0.67122005    0.28629002    0.29567004    0.11840000
opls_146-406    H    0.58408005    0.22066005    0.30996953    0.12220000
opls_146-407    H    0.56559997    0.18348993    0.30770038    0.11800000
opls_146-408    H    0.61941995    0.18392000    0.10329955    0.12220000
opls_146-409    H    0.63764004    0.22071997    0.10031040    0.12260000
opls_185-410    H    0.52739000    0.95756990    0.38483027    0.09010000
opls_185-411    H    0.50673989    0.95826990    0.50316065    0.07480000
opls_185-412    H    0.53205999    0.98064992    0.50070016    0.07490000
opls_185-413    H    0.56516005    0.04394006    0.31549996    0.09010000
opls_185-414    H    0.56432009    0.02272007    0.43800014    0.07450000
opls_185-415    H    0.54681999    0.03115995    0.50192049    0.07440000
opls_146-416    H    0.46200002    0.98440999    0.31793069    0.12080000
opls_146-417    H    0.42135991    0.91729987    0.27243002    0.11490000
opls_146-418    H    0.39936998    0.88016001    0.25606973    0.11620000
opls_146-419    H    0.45267989    0.87350991    0.24107009    0.12380000
opls_146-420    H    0.47444996    0.91055989    0.25760045    0.11770000
opls_144-421    H    0.39456987    0.84569988    0.23780030    0.12200000
opls_146-422    H    0.53726999    0.51509995    0.30997945    0.11960000
opls_146-423    H    0.50575006    0.42320002    0.28864999    0.12080000
opls_146-424    H    0.52080006    0.40107000    0.28395011    0.12080000
opls_146-425    H    0.58085002    0.45413003    0.26630997    0.11940000
opls_146-426    H    0.56565993    0.47605991    0.27098009    0.11490000
opls_144-427    H    0.55029001    0.39603996    0.27425980    0.12380000
opls_526-428    H    0.32993992    0.61621991    0.07613068    0.11770000
opls_146-429    H    0.34901002    0.59826999    0.06615973    0.12260000
opls_146-430    H    0.40334991    0.65318990    0.23822975    0.11990000
opls_526-431    H    0.38445998    0.67132991    0.23938063    0.11840000
opls_146-432    H    0.36426003    0.58464996    0.25521933    0.12280000
opls_146-433    H    0.38337002    0.56657991    0.25574942    0.11530000
opls_146-434    H    0.43646001    0.62065990    0.05267947    0.12400000
opls_146-435    H    0.41742995    0.63847995    0.04622068    0.11800000
opls_526-436    H    0.71340000    0.32861002    0.14901991    0.11490000
opls_146-437    H    0.75041002    0.34724002    0.15517965    0.12210000
opls_146-438    H    0.74973006    0.40141004    0.33196939    0.11950000
opls_526-439    H    0.71274992    0.38299995    0.31703069    0.11620000
opls_146-440    H    0.77846003    0.36159001    0.35454043    0.11960000
opls_146-441    H    0.81562995    0.38022001    0.36591028    0.11990000
opls_146-442    H    0.81613993    0.43423993    0.16829991    0.11910000
opls_146-443    H    0.77930003    0.41572004    0.15125930    0.11950000
opls_185-444    H    0.04511998    0.56920990    0.44685990    0.07440000
opls_185-445    H    0.04563998    0.54773001    0.54797959    0.07440000
opls_185-446    H    0.02428994    0.55164990    0.59279002    0.07440000
opls_185-447    H    0.96324997    0.51378997    0.55777053    0.07460000
opls_185-448    H    0.96885993    0.53771995    0.45523067    0.09010000
opls_185-449    H    0.98784004    0.53632998    0.59646942    0.09010000
opls_146-450    H    0.02181001    0.53367003    0.89393948    0.11840000
opls_146-451    H    0.08214991    0.50287993    0.80059953    0.11770000
opls_146-452    H    0.11920996    0.51841991    0.76923960    0.11960000
opls_146-453    H    0.12513992    0.57804989    0.77746014    0.11840000
opls_146-454    H    0.08808996    0.56234993    0.80880023    0.11620000
opls_144-455    H    0.15337003    0.54819004    0.74903976    0.12460000
opls_146-456    H    0.53491005    0.01504999    0.81477996    0.11520000
opls_146-457    H    0.57507009    0.08079006    0.71171993    0.12110000
opls_146-458    H    0.59750993    0.11784993    0.69149033    0.11840000
opls_146-459    H    0.54521000    0.12587997    0.74299057    0.11980000
opls_146-460    H    0.52300004    0.08893005    0.76325987    0.11770000
opls_144-461    H    0.60302996    0.15260996    0.69424988    0.12460000
opls_526-462    H    0.38293996    0.71319992    0.59613068    0.12210000
opls_146-463    H    0.40100995    0.75016991    0.60252994    0.12260000
opls_146-464    H    0.34588993    0.74895999    0.78036992    0.11960000
opls_526-465    H    0.32763992    0.71199989    0.76518036    0.11810000
opls_146-466    H    0.41450001    0.77822995    0.80139040    0.11930000
opls_146-467    H    0.43269992    0.81536996    0.81200057    0.11800000
opls_146-468    H    0.37886004    0.81530000    0.61481964    0.12400000
opls_146-469    H    0.36085998    0.77847996    0.59860960    0.12260000
opls_526-470    H    0.67016999    0.38335002    0.65141946    0.12020000
opls_146-471    H    0.65144003    0.40163998    0.65475019    0.12280000
opls_146-472    H    0.59712003    0.34670000    0.82697045    0.12020000
opls_526-473    H    0.61566997    0.32822999    0.81443980    0.11800000
opls_146-474    H    0.63671992    0.41527993    0.84919991    0.12260000
opls_146-475    H    0.61798989    0.43373991    0.85389979    0.11960000
opls_146-476    H    0.56427992    0.38007995    0.65439019    0.12040000
opls_146-477    H    0.58291004    0.36184002    0.64347955    0.11950000
opls_146-478    H    0.46401990    0.48654992    0.78904968    0.11780000
opls_146-479    H    0.49540999    0.57743003    0.66809014    0.11840000
opls_146-480    H    0.48019996    0.59926989    0.64035008    0.11620000
opls_146-481    H    0.42037991    0.54654990    0.70308979    0.12250000
opls_146-482    H    0.43576001    0.52487992    0.73087946    0.11770000
opls_144-483    H    0.45073998    0.60425994    0.64214017    0.11730000
opls_146-484    H    0.98433999    0.51787000    0.89905039    0.11770000
opls_146-485    H    0.91813007    0.49271004    0.83778045    0.11620000
opls_146-486    H    0.88107001    0.47820995    0.81547020    0.11520000
opls_146-487    H    0.87332996    0.41786004    0.79491035    0.11940000
opls_146-488    H    0.91026996    0.43247996    0.81715966    0.11710000
opls_144-489    H    0.84636001    0.44897999    0.79150025    0.10250000
opls_526-490    H    0.28577001    0.66975000    0.60162001    0.11840000
opls_146-491    H    0.24876002    0.65067001    0.61050953    0.11930000
opls_146-492    H    0.25048998    0.59686998    0.78137056    0.12260000
opls_526-493    H    0.28743996    0.61572992    0.76323010    0.11960000
opls_146-494    H    0.22086001    0.63589999    0.81099993    0.12210000
opls_146-495    H    0.18372995    0.61674989    0.82687974    0.11980000
opls_146-496    H    0.18396989    0.56320992    0.62562965    0.12040000
opls_146-497    H    0.22074995    0.58224003    0.60416980    0.12020000
opls_526-498    H    0.61597996    0.28672998    0.63093048    0.12020000
opls_146-499    H    0.59778003    0.24973003    0.62089009    0.12030000
opls_146-500    H    0.65247994    0.24982994    0.79423003    0.12260000
opls_526-501    H    0.67086001    0.28680997    0.79527036    0.11770000
opls_146-502    H    0.58393996    0.22079996    0.80949047    0.12210000
opls_146-503    H    0.56564999    0.18364992    0.80759974    0.12020000
opls_146-504    H    0.61964997    0.18435996    0.60476933    0.12400000
opls_146-505    H    0.63770000    0.22118000    0.60107009    0.11950000
opls_146-506    H    0.51313996    0.97795986    0.81997024    0.11840000
opls_146-507    H    0.42134997    0.91748996    0.77402027    0.11770000
opls_146-508    H    0.39946992    0.88034996    0.75773935    0.11960000
opls_146-509    H    0.45289994    0.87390987    0.73986961    0.11800000
opls_146-510    H    0.47458995    0.91100988    0.75603005    0.11500000
opls_144-511    H    0.39475990    0.84599992    0.73946000    0.12100000
opls_146-512    H    0.47901998    0.46451997    0.80479059    0.11800000
opls_146-513    H    0.50523995    0.42395994    0.78794983    0.12080000
opls_146-514    H    0.52006991    0.40162994    0.78264049    0.11770000
opls_146-515    H    0.58029999    0.45443996    0.76696053    0.11840000
opls_146-516    H    0.56533001    0.47655993    0.77239033    0.11710000
opls_144-517    H    0.54949004    0.39636996    0.77239033    0.09530000
opls_526-518    H    0.32913998    0.61645000    0.57523067    0.11960000
opls_146-519    H    0.34813997    0.59841994    0.56558997    0.12280000
opls_146-520    H    0.40250995    0.65322989    0.73893983    0.12260000
opls_526-521    H    0.38371998    0.67145993    0.73948976    0.11990000
opls_146-522    H    0.36329991    0.58471992    0.75585997    0.11950000
opls_146-523    H    0.38236005    0.56659998    0.75671037    0.11780000
opls_146-524    H    0.43546999    0.62062994    0.55263978    0.11630000
opls_146-525    H    0.41652004    0.63848998    0.54668982    0.11940000
opls_526-526    H    0.71269996    0.32894003    0.64929062    0.11980000
opls_146-527    H    0.74968998    0.34751999    0.65463964    0.12460000
opls_146-528    H    0.74912993    0.40170994    0.83272057    0.12250000
opls_526-529    H    0.71213003    0.38333999    0.81832046    0.11490000
opls_146-530    H    0.77776000    0.36178999    0.85289065    0.12280000
opls_146-531    H    0.81491995    0.38035992    0.86396003    0.11540000
opls_146-532    H    0.81554993    0.43447991    0.66789030    0.12350000
opls_146-533    H    0.77868006    0.41601004    0.65107930    0.11980000
opls_185-534    H    0.56612999    0.54792999    0.80790022    0.07420000
opls_185-535    H    0.56637989    0.52861991    0.95451067    0.07420000
opls_185-536    H    0.54754001    0.53591998    0.99489051    0.08490000
opls_185-537    H    0.51659997    0.54981998    0.98076961    0.07440000
opls_185-538    H    0.52135001    0.56727003    0.78740982    0.09010000
opls_185-539    H    0.54224998    0.56769994    0.91212954    0.07440000
opls_185-540    H    0.44565992    0.96567993    0.00014032    0.07500000
opls_185-541    H    0.42732997    0.97023991    0.88129970    0.07440000
opls_185-542    H    0.44865991    0.99103987    0.99869038    0.08500000
opls_185-543    H    0.49008003    0.05335003    0.81446956    0.07430000
opls_185-544    H    0.49156001    0.03785993    0.00103040    0.07460000
opls_185-545    H    0.46736992    0.03497993    0.93549004    0.07420000
opls_185-546    H    0.96306997    0.43005999    0.02183970    0.07420000
opls_185-547    H    0.94457996    0.43455001    0.90476933    0.07420000
opls_185-548    H    0.96064996    0.45162002    0.08810006    0.07440000
opls_185-549    H    0.04466006    0.47518000    0.89227978    0.07440000
opls_185-550    H    0.02357997    0.45462990    0.01443980    0.09010000
opls_185-551    H    0.03171000    0.48046994    0.07923039    0.07440000
