#======================================================================
# Crystal Data Generated By AuToFF
#----------------------------------------------------------------------

data_AuToFF_phase_1

_cell_length_a                         10.5223
_cell_length_b                         89.0138
_cell_length_c                         26.2907
_cell_angle_alpha                      90.00
_cell_angle_beta                       90.00
_cell_angle_gamma                      90.00
_symmetry_space_group_name_H-M_alt     'P 1'
_symmetry_space_group_IT_number        1

loop_
_space_group_symop_operation_xyz
   'x, y, z'

loop_
   _atom_site_label
   _atom_site_type_symbol
   _atom_site_fract_x
   _atom_site_fract_y
   _atom_site_fract_z
   _atom_site_charge
opls_716-0    C    0.74160022    0.75768005    0.11548000    -0.04220000
opls_145-1    C    0.66050958    0.81505003    0.43068005    -0.23300000
opls_145-2    C    0.66450966    0.80694005    0.38710989    -0.23450000
opls_145-3    C    0.75638976    0.80215000    0.36821994    0.14870000
opls_145-4    C    0.84284044    0.80522998    0.39432004    -0.23450000
opls_145-5    C    0.83884987    0.81346005    0.43763993    -0.23450000
opls_916-6    C    0.74767969    0.81849005    0.45586995    0.12440000
opls_145-7    C    0.71020024    0.85183005    0.45631003    -0.23280000
opls_145-8    C    0.68753980    0.86760997    0.45641995    -0.23280000
opls_142-9    C    0.70057972    0.79428999    0.28860015    0.08280000
opls_145-10    C    0.64572955    0.78641997    0.79311011    -0.22280000
opls_145-11    C    0.65477034    0.77749001    0.83480014    -0.22290000
opls_145-12    C    0.73409046    0.76717003    0.84014005    0.01960000
opls_145-13    C    0.80610988    0.76629994    0.80360013    -0.22290000
opls_145-14    C    0.79617004    0.77509004    0.76150996    -0.22300000
opls_145-15    C    0.71512027    0.78513994    0.75578018    0.00860000
opls_145-16    C    0.66672971    0.92617999    0.45627998    -0.22500000
opls_145-17    C    0.62758047    0.94115002    0.45627998    -0.22460000
opls_716-18    C    0.75000048    0.75000000    0.02428996    -0.16270000
opls_141-19    C    0.54951959    0.03686001    0.50000000    -0.00530000
opls_145-20    C    0.67625994    0.87552997    0.50000000    0.17950000
opls_916-21    C    0.72077017    0.84359998    0.50000000    0.13890000
opls_142-22    C    0.71659998    0.90238997    0.50000000    0.08270000
opls_145-23    C    0.60629995    0.94858999    0.50000000    0.02340000
opls_145-24    C    0.68493960    0.91857004    0.50000000    0.04070000
opls_141-25    C    0.50000000    0.00780003    0.50000000    -0.14580000
opls_716-26    C    0.25839978    0.24231995    0.11548000    -0.04220000
opls_145-27    C    0.33949042    0.18494997    0.43068005    -0.23290000
opls_145-28    C    0.33549034    0.19305995    0.38710989    -0.23450000
opls_145-29    C    0.24361024    0.19785000    0.36821994    0.14870000
opls_145-30    C    0.15715956    0.19477002    0.39432004    -0.23450000
opls_145-31    C    0.16115013    0.18653995    0.43763993    -0.23450000
opls_916-32    C    0.25232031    0.18150995    0.45586995    0.12440000
opls_145-33    C    0.28979976    0.14816995    0.45631003    -0.23280000
opls_145-34    C    0.31246020    0.13239003    0.45641995    -0.23280000
opls_142-35    C    0.29942028    0.20571001    0.28860015    0.08280000
opls_145-36    C    0.35427045    0.21358003    0.79311011    -0.22290000
opls_145-37    C    0.34522966    0.22250999    0.83480014    -0.22300000
opls_145-38    C    0.26590954    0.23282997    0.84014005    0.01960000
opls_145-39    C    0.19389012    0.23370006    0.80360013    -0.22280000
opls_145-40    C    0.20382996    0.22490996    0.76150996    -0.22300000
opls_145-41    C    0.28487973    0.21486006    0.75578018    0.00860000
opls_145-42    C    0.33327029    0.07382001    0.45627998    -0.22490000
opls_145-43    C    0.37241953    0.05884998    0.45627998    -0.22460000
opls_716-44    C    0.24999952    0.25000000    0.02428996    -0.16270000
opls_141-45    C    0.45048041    0.96313999    0.50000000    -0.00530000
opls_145-46    C    0.32374006    0.12447003    0.50000000    0.17960000
opls_916-47    C    0.27922983    0.15640002    0.50000000    0.13890000
opls_142-48    C    0.28340002    0.09761003    0.50000000    0.08270000
opls_145-49    C    0.39370005    0.05141001    0.50000000    0.02340000
opls_145-50    C    0.31506040    0.08142996    0.50000000    0.04070000
opls_141-51    C    0.50000000    0.99219997    0.50000000    -0.14580000
opls_716-52    C    0.25839978    0.75768005    0.88452000    -0.04220000
opls_145-53    C    0.33949042    0.81505003    0.56931995    -0.23300000
opls_145-54    C    0.33549034    0.80694005    0.61289011    -0.23450000
opls_145-55    C    0.24361024    0.80215000    0.63178006    0.14870000
opls_145-56    C    0.15715956    0.80522998    0.60567996    -0.23450000
opls_145-57    C    0.16115013    0.81346005    0.56236007    -0.23450000
opls_916-58    C    0.25232031    0.81849005    0.54413005    0.12450000
opls_145-59    C    0.28979976    0.85183005    0.54368997    -0.23280000
opls_145-60    C    0.31246020    0.86760997    0.54358005    -0.23280000
opls_142-61    C    0.29942028    0.79428999    0.71139985    0.08280000
opls_145-62    C    0.35427045    0.78641997    0.20688989    -0.22280000
opls_145-63    C    0.34522966    0.77749001    0.16519986    -0.22280000
opls_145-64    C    0.26590954    0.76717003    0.15985995    0.01960000
opls_145-65    C    0.19389012    0.76629994    0.19639987    -0.22290000
opls_145-66    C    0.20382996    0.77509004    0.23849004    -0.22300000
opls_145-67    C    0.28487973    0.78513994    0.24421982    0.00860000
opls_145-68    C    0.33327029    0.92617999    0.54372002    -0.22490000
opls_145-69    C    0.37241953    0.94115002    0.54372002    -0.22460000
opls_716-70    C    0.24999952    0.75000000    0.97571004    -0.16270000
opls_141-71    C    0.45048041    0.03686001    0.50000000    -0.00530000
opls_145-72    C    0.32374006    0.87552997    0.50000000    0.17950000
opls_916-73    C    0.27922983    0.84359998    0.50000000    0.13900000
opls_142-74    C    0.28340002    0.90238997    0.50000000    0.08270000
opls_145-75    C    0.39370005    0.94858999    0.50000000    0.02340000
opls_145-76    C    0.31506040    0.91857004    0.50000000    0.04070000
opls_716-77    C    0.74160022    0.24231995    0.88452000    -0.04220000
opls_145-78    C    0.66050958    0.18494997    0.56931995    -0.23300000
opls_145-79    C    0.66450966    0.19305995    0.61289011    -0.23450000
opls_145-80    C    0.75638976    0.19785000    0.63178006    0.14880000
opls_145-81    C    0.84284044    0.19477002    0.60567996    -0.23430000
opls_145-82    C    0.83884987    0.18653995    0.56236007    -0.23450000
opls_916-83    C    0.74767969    0.18150995    0.54413005    0.12440000
opls_145-84    C    0.71020024    0.14816995    0.54368997    -0.23280000
opls_145-85    C    0.68753980    0.13239003    0.54358005    -0.23280000
opls_142-86    C    0.70057972    0.20571001    0.71139985    0.08290000
opls_145-87    C    0.64572955    0.21358003    0.20688989    -0.22290000
opls_145-88    C    0.65477034    0.22250999    0.16519986    -0.22290000
opls_145-89    C    0.73409046    0.23282997    0.15985995    0.01960000
opls_145-90    C    0.80610988    0.23370006    0.19639987    -0.22290000
opls_145-91    C    0.79617004    0.22490996    0.23849004    -0.22290000
opls_145-92    C    0.71512027    0.21486006    0.24421982    0.00860000
opls_145-93    C    0.66672971    0.07382001    0.54372002    -0.22500000
opls_145-94    C    0.62758047    0.05884998    0.54372002    -0.22460000
opls_716-95    C    0.75000048    0.25000000    0.97571004    -0.16260000
opls_141-96    C    0.54951959    0.96313999    0.50000000    -0.00530000
opls_145-97    C    0.67625994    0.12447003    0.50000000    0.17950000
opls_916-98    C    0.72077017    0.15640002    0.50000000    0.13890000
opls_142-99    C    0.71659998    0.09761003    0.50000000    0.08270000
opls_145-100    C    0.60629995    0.05141001    0.50000000    0.02340000
opls_145-101    C    0.68493960    0.08142996    0.50000000    0.04070000
opls_716-102    C    0.25839978    0.24231995    0.88452000    -0.04220000
opls_145-103    C    0.33949042    0.18494997    0.56931995    -0.23300000
opls_145-104    C    0.33549034    0.19305995    0.61289011    -0.23450000
opls_145-105    C    0.24361024    0.19785000    0.63178006    0.14870000
opls_145-106    C    0.15715956    0.19477002    0.60567996    -0.23450000
opls_145-107    C    0.16115013    0.18653995    0.56236007    -0.23440000
opls_916-108    C    0.25232031    0.18150995    0.54413005    0.12440000
opls_145-109    C    0.28979976    0.14816995    0.54368997    -0.23270000
opls_145-110    C    0.31246020    0.13239003    0.54358005    -0.23280000
opls_142-111    C    0.29942028    0.20571001    0.71139985    0.08280000
opls_145-112    C    0.35427045    0.21358003    0.20688989    -0.22290000
opls_145-113    C    0.34522966    0.22250999    0.16519986    -0.22300000
opls_145-114    C    0.26590954    0.23282997    0.15985995    0.01960000
opls_145-115    C    0.19389012    0.23370006    0.19639987    -0.22290000
opls_145-116    C    0.20382996    0.22490996    0.23849004    -0.22300000
opls_145-117    C    0.28487973    0.21486006    0.24421982    0.00860000
opls_145-118    C    0.33327029    0.07382001    0.54372002    -0.22500000
opls_145-119    C    0.37241953    0.05884998    0.54372002    -0.22460000
opls_716-120    C    0.24999952    0.25000000    0.97571004    -0.16270000
opls_716-121    C    0.74160022    0.75768005    0.88452000    -0.04220000
opls_145-122    C    0.66050958    0.81505003    0.56931995    -0.23290000
opls_145-123    C    0.66450966    0.80694005    0.61289011    -0.23450000
opls_145-124    C    0.75638976    0.80215000    0.63178006    0.14870000
opls_145-125    C    0.84284044    0.80522998    0.60567996    -0.23450000
opls_145-126    C    0.83884987    0.81346005    0.56236007    -0.23450000
opls_916-127    C    0.74767969    0.81849005    0.54413005    0.12440000
opls_145-128    C    0.71020024    0.85183005    0.54368997    -0.23280000
opls_145-129    C    0.68753980    0.86760997    0.54358005    -0.23270000
opls_142-130    C    0.70057972    0.79428999    0.71139985    0.08280000
opls_145-131    C    0.64572955    0.78641997    0.20688989    -0.22290000
opls_145-132    C    0.65477034    0.77749001    0.16519986    -0.22300000
opls_145-133    C    0.73409046    0.76717003    0.15985995    0.01960000
opls_145-134    C    0.80610988    0.76629994    0.19639987    -0.22290000
opls_145-135    C    0.79617004    0.77509004    0.23849004    -0.22300000
opls_145-136    C    0.71512027    0.78513994    0.24421982    0.00860000
opls_145-137    C    0.66672971    0.92617999    0.54372002    -0.22490000
opls_145-138    C    0.62758047    0.94115002    0.54372002    -0.22450000
opls_716-139    C    0.75000048    0.75000000    0.97571004    -0.16270000
opls_716-140    C    0.74160022    0.24231995    0.11548000    -0.04220000
opls_145-141    C    0.66050958    0.18494997    0.43068005    -0.23300000
opls_145-142    C    0.66450966    0.19305995    0.38710989    -0.23450000
opls_145-143    C    0.75638976    0.19785000    0.36821994    0.14870000
opls_145-144    C    0.84284044    0.19477002    0.39432004    -0.23450000
opls_145-145    C    0.83884987    0.18653995    0.43763993    -0.23450000
opls_916-146    C    0.74767969    0.18150995    0.45586995    0.12440000
opls_145-147    C    0.71020024    0.14816995    0.45631003    -0.23280000
opls_145-148    C    0.68753980    0.13239003    0.45641995    -0.23280000
opls_142-149    C    0.70057972    0.20571001    0.28860015    0.08280000
opls_145-150    C    0.64572955    0.21358003    0.79311011    -0.22290000
opls_145-151    C    0.65477034    0.22250999    0.83480014    -0.22300000
opls_145-152    C    0.73409046    0.23282997    0.84014005    0.01960000
opls_145-153    C    0.80610988    0.23370006    0.80360013    -0.22290000
opls_145-154    C    0.79617004    0.22490996    0.76150996    -0.22300000
opls_145-155    C    0.71512027    0.21486006    0.75578018    0.00860000
opls_145-156    C    0.66672971    0.07382001    0.45627998    -0.22500000
opls_145-157    C    0.62758047    0.05884998    0.45627998    -0.22460000
opls_716-158    C    0.75000048    0.25000000    0.02428996    -0.16260000
opls_716-159    C    0.25839978    0.75768005    0.11548000    -0.04220000
opls_145-160    C    0.33949042    0.81505003    0.43068005    -0.23300000
opls_145-161    C    0.33549034    0.80694005    0.38710989    -0.23450000
opls_145-162    C    0.24361024    0.80215000    0.36821994    0.14870000
opls_145-163    C    0.15715956    0.80522998    0.39432004    -0.23450000
opls_145-164    C    0.16115013    0.81346005    0.43763993    -0.23440000
opls_916-165    C    0.25232031    0.81849005    0.45586995    0.12440000
opls_145-166    C    0.28979976    0.85183005    0.45631003    -0.23280000
opls_145-167    C    0.31246020    0.86760997    0.45641995    -0.23280000
opls_142-168    C    0.29942028    0.79428999    0.28860015    0.08280000
opls_145-169    C    0.35427045    0.78641997    0.79311011    -0.22290000
opls_145-170    C    0.34522966    0.77749001    0.83480014    -0.22280000
opls_145-171    C    0.26590954    0.76717003    0.84014005    0.01960000
opls_145-172    C    0.19389012    0.76629994    0.80360013    -0.22290000
opls_145-173    C    0.20382996    0.77509004    0.76150996    -0.22300000
opls_145-174    C    0.28487973    0.78513994    0.75578018    0.00860000
opls_145-175    C    0.33327029    0.92617999    0.45627998    -0.22500000
opls_145-176    C    0.37241953    0.94115002    0.45627998    -0.22460000
opls_716-177    C    0.24999952    0.75000000    0.02428996    -0.16270000
opls_716-178    C    0.24160022    0.25768005    0.11548000    -0.04220000
opls_145-179    C    0.16050958    0.31505003    0.43068005    -0.23300000
opls_145-180    C    0.16450966    0.30694005    0.38710989    -0.23450000
opls_145-181    C    0.25638976    0.30215000    0.36821994    0.14880000
opls_145-182    C    0.34284044    0.30522998    0.39432004    -0.23450000
opls_145-183    C    0.33884987    0.31346005    0.43763993    -0.23450000
opls_916-184    C    0.24767969    0.31849005    0.45586995    0.12440000
opls_145-185    C    0.21020024    0.35183005    0.45631003    -0.23270000
opls_145-186    C    0.18753980    0.36760997    0.45641995    -0.23280000
opls_142-187    C    0.20057972    0.29428999    0.28860015    0.08280000
opls_145-188    C    0.14572955    0.28641997    0.79311011    -0.22290000
opls_145-189    C    0.15477034    0.27749001    0.83480014    -0.22290000
opls_145-190    C    0.23409046    0.26717003    0.84014005    0.01960000
opls_145-191    C    0.30610988    0.26629994    0.80360013    -0.22290000
opls_145-192    C    0.29617004    0.27509004    0.76150996    -0.22300000
opls_145-193    C    0.21512027    0.28513994    0.75578018    0.00860000
opls_145-194    C    0.16672971    0.42617999    0.45627998    -0.22500000
opls_145-195    C    0.12758047    0.44115002    0.45627998    -0.22460000
opls_141-196    C    0.04951959    0.53686001    0.50000000    -0.00530000
opls_145-197    C    0.17625994    0.37552997    0.50000000    0.17950000
opls_916-198    C    0.22077017    0.34359998    0.50000000    0.13890000
opls_142-199    C    0.21659998    0.40238997    0.50000000    0.08270000
opls_145-200    C    0.10629995    0.44858999    0.50000000    0.02340000
opls_145-201    C    0.18493960    0.41857004    0.50000000    0.04070000
opls_141-202    C    0.00000000    0.50780003    0.50000000    -0.14580000
opls_716-203    C    0.75839978    0.74231995    0.11548000    -0.04220000
opls_145-204    C    0.83949042    0.68494997    0.43068005    -0.23290000
opls_145-205    C    0.83549034    0.69305995    0.38710989    -0.23450000
opls_145-206    C    0.74361024    0.69785000    0.36821994    0.14890000
opls_145-207    C    0.65715956    0.69477002    0.39432004    -0.23450000
opls_145-208    C    0.66115013    0.68653995    0.43763993    -0.23450000
opls_916-209    C    0.75232031    0.68150995    0.45586995    0.12440000
opls_145-210    C    0.78979976    0.64816995    0.45631003    -0.23280000
opls_145-211    C    0.81246020    0.63239003    0.45641995    -0.23280000
opls_142-212    C    0.79942028    0.70571001    0.28860015    0.08280000
opls_145-213    C    0.85427045    0.71358003    0.79311011    -0.22290000
opls_145-214    C    0.84522966    0.72250999    0.83480014    -0.22300000
opls_145-215    C    0.76590954    0.73282997    0.84014005    0.01960000
opls_145-216    C    0.69389012    0.73370006    0.80360013    -0.22290000
opls_145-217    C    0.70382996    0.72490996    0.76150996    -0.22300000
opls_145-218    C    0.78487973    0.71486006    0.75578018    0.00860000
opls_145-219    C    0.83327029    0.57382001    0.45627998    -0.22500000
opls_145-220    C    0.87241953    0.55884998    0.45627998    -0.22460000
opls_141-221    C    0.95048041    0.46313999    0.50000000    -0.00530000
opls_145-222    C    0.82374006    0.62447003    0.50000000    0.17950000
opls_916-223    C    0.77922983    0.65640002    0.50000000    0.13890000
opls_142-224    C    0.78340002    0.59761003    0.50000000    0.08270000
opls_145-225    C    0.89370005    0.55141001    0.50000000    0.02340000
opls_145-226    C    0.81506040    0.58142996    0.50000000    0.04070000
opls_141-227    C    0.00000000    0.49219997    0.50000000    -0.14580000
opls_716-228    C    0.75839978    0.25768005    0.88452000    -0.04220000
opls_145-229    C    0.83949042    0.31505003    0.56931995    -0.23300000
opls_145-230    C    0.83549034    0.30694005    0.61289011    -0.23450000
opls_145-231    C    0.74361024    0.30215000    0.63178006    0.14870000
opls_145-232    C    0.65715956    0.30522998    0.60567996    -0.23450000
opls_145-233    C    0.66115013    0.31346005    0.56236007    -0.23440000
opls_916-234    C    0.75232031    0.31849005    0.54413005    0.12440000
opls_145-235    C    0.78979976    0.35183005    0.54368997    -0.23280000
opls_145-236    C    0.81246020    0.36760997    0.54358005    -0.23270000
opls_142-237    C    0.79942028    0.29428999    0.71139985    0.08280000
opls_145-238    C    0.85427045    0.28641997    0.20688989    -0.22290000
opls_145-239    C    0.84522966    0.27749001    0.16519986    -0.22290000
opls_145-240    C    0.76590954    0.26717003    0.15985995    0.01960000
opls_145-241    C    0.69389012    0.26629994    0.19639987    -0.22290000
opls_145-242    C    0.70382996    0.27509004    0.23849004    -0.22300000
opls_145-243    C    0.78487973    0.28513994    0.24421982    0.00860000
opls_145-244    C    0.83327029    0.42617999    0.54372002    -0.22500000
opls_145-245    C    0.87241953    0.44115002    0.54372002    -0.22460000
opls_141-246    C    0.95048041    0.53686001    0.50000000    -0.00530000
opls_145-247    C    0.82374006    0.37552997    0.50000000    0.17950000
opls_916-248    C    0.77922983    0.34359998    0.50000000    0.13890000
opls_142-249    C    0.78340002    0.40238997    0.50000000    0.08270000
opls_145-250    C    0.89370005    0.44858999    0.50000000    0.02350000
opls_145-251    C    0.81506040    0.41857004    0.50000000    0.04070000
opls_716-252    C    0.24160022    0.74231995    0.88452000    -0.04220000
opls_145-253    C    0.16050958    0.68494997    0.56931995    -0.23300000
opls_145-254    C    0.16450966    0.69305995    0.61289011    -0.23450000
opls_145-255    C    0.25638976    0.69785000    0.63178006    0.14870000
opls_145-256    C    0.34284044    0.69477002    0.60567996    -0.23450000
opls_145-257    C    0.33884987    0.68653995    0.56236007    -0.23450000
opls_916-258    C    0.24767969    0.68150995    0.54413005    0.12440000
opls_145-259    C    0.21020024    0.64816995    0.54368997    -0.23280000
opls_145-260    C    0.18753980    0.63239003    0.54358005    -0.23280000
opls_142-261    C    0.20057972    0.70571001    0.71139985    0.08280000
opls_145-262    C    0.14572955    0.71358003    0.20688989    -0.22290000
opls_145-263    C    0.15477034    0.72250999    0.16519986    -0.22300000
opls_145-264    C    0.23409046    0.73282997    0.15985995    0.01960000
opls_145-265    C    0.30610988    0.73370006    0.19639987    -0.22290000
opls_145-266    C    0.29617004    0.72490996    0.23849004    -0.22300000
opls_145-267    C    0.21512027    0.71486006    0.24421982    0.00860000
opls_145-268    C    0.16672971    0.57382001    0.54372002    -0.22500000
opls_145-269    C    0.12758047    0.55884998    0.54372002    -0.22450000
opls_141-270    C    0.04951959    0.46313999    0.50000000    -0.00530000
opls_145-271    C    0.17625994    0.62447003    0.50000000    0.17960000
opls_916-272    C    0.22077017    0.65640002    0.50000000    0.13890000
opls_142-273    C    0.21659998    0.59761003    0.50000000    0.08270000
opls_145-274    C    0.10629995    0.55141001    0.50000000    0.02340000
opls_145-275    C    0.18493960    0.58142996    0.50000000    0.04070000
opls_716-276    C    0.75839978    0.74231995    0.88452000    -0.04220000
opls_145-277    C    0.83949042    0.68494997    0.56931995    -0.23300000
opls_145-278    C    0.83549034    0.69305995    0.61289011    -0.23440000
opls_145-279    C    0.74361024    0.69785000    0.63178006    0.14870000
opls_145-280    C    0.65715956    0.69477002    0.60567996    -0.23450000
opls_145-281    C    0.66115013    0.68653995    0.56236007    -0.23450000
opls_916-282    C    0.75232031    0.68150995    0.54413005    0.12440000
opls_145-283    C    0.78979976    0.64816995    0.54368997    -0.23280000
opls_145-284    C    0.81246020    0.63239003    0.54358005    -0.23280000
opls_142-285    C    0.79942028    0.70571001    0.71139985    0.08280000
opls_145-286    C    0.85427045    0.71358003    0.20688989    -0.22270000
opls_145-287    C    0.84522966    0.72250999    0.16519986    -0.22290000
opls_145-288    C    0.76590954    0.73282997    0.15985995    0.01960000
opls_145-289    C    0.69389012    0.73370006    0.19639987    -0.22290000
opls_145-290    C    0.70382996    0.72490996    0.23849004    -0.22300000
opls_145-291    C    0.78487973    0.71486006    0.24421982    0.00860000
opls_145-292    C    0.83327029    0.57382001    0.54372002    -0.22500000
opls_145-293    C    0.87241953    0.55884998    0.54372002    -0.22460000
opls_716-294    C    0.24160022    0.25768005    0.88452000    -0.04220000
opls_145-295    C    0.16050958    0.31505003    0.56931995    -0.23300000
opls_145-296    C    0.16450966    0.30694005    0.61289011    -0.23450000
opls_145-297    C    0.25638976    0.30215000    0.63178006    0.14870000
opls_145-298    C    0.34284044    0.30522998    0.60567996    -0.23440000
opls_145-299    C    0.33884987    0.31346005    0.56236007    -0.23450000
opls_916-300    C    0.24767969    0.31849005    0.54413005    0.12440000
opls_145-301    C    0.21020024    0.35183005    0.54368997    -0.23270000
opls_145-302    C    0.18753980    0.36760997    0.54358005    -0.23280000
opls_142-303    C    0.20057972    0.29428999    0.71139985    0.08290000
opls_145-304    C    0.14572955    0.28641997    0.20688989    -0.22280000
opls_145-305    C    0.15477034    0.27749001    0.16519986    -0.22300000
opls_145-306    C    0.23409046    0.26717003    0.15985995    0.01960000
opls_145-307    C    0.30610988    0.26629994    0.19639987    -0.22290000
opls_145-308    C    0.29617004    0.27509004    0.23849004    -0.22300000
opls_145-309    C    0.21512027    0.28513994    0.24421982    0.00860000
opls_145-310    C    0.16672971    0.42617999    0.54372002    -0.22500000
opls_145-311    C    0.12758047    0.44115002    0.54372002    -0.22460000
opls_716-312    C    0.24160022    0.74231995    0.11548000    -0.04220000
opls_145-313    C    0.16050958    0.68494997    0.43068005    -0.23300000
opls_145-314    C    0.16450966    0.69305995    0.38710989    -0.23450000
opls_145-315    C    0.25638976    0.69785000    0.36821994    0.14870000
opls_145-316    C    0.34284044    0.69477002    0.39432004    -0.23450000
opls_145-317    C    0.33884987    0.68653995    0.43763993    -0.23450000
opls_916-318    C    0.24767969    0.68150995    0.45586995    0.12440000
opls_145-319    C    0.21020024    0.64816995    0.45631003    -0.23280000
opls_145-320    C    0.18753980    0.63239003    0.45641995    -0.23280000
opls_142-321    C    0.20057972    0.70571001    0.28860015    0.08280000
opls_145-322    C    0.14572955    0.71358003    0.79311011    -0.22290000
opls_145-323    C    0.15477034    0.72250999    0.83480014    -0.22300000
opls_145-324    C    0.23409046    0.73282997    0.84014005    0.01960000
opls_145-325    C    0.30610988    0.73370006    0.80360013    -0.22290000
opls_145-326    C    0.29617004    0.72490996    0.76150996    -0.22300000
opls_145-327    C    0.21512027    0.71486006    0.75578018    0.00860000
opls_145-328    C    0.16672971    0.57382001    0.45627998    -0.22500000
opls_145-329    C    0.12758047    0.55884998    0.45627998    -0.22460000
opls_716-330    C    0.75839978    0.25768005    0.11548000    -0.04220000
opls_145-331    C    0.83949042    0.31505003    0.43068005    -0.23300000
opls_145-332    C    0.83549034    0.30694005    0.38710989    -0.23450000
opls_145-333    C    0.74361024    0.30215000    0.36821994    0.14870000
opls_145-334    C    0.65715956    0.30522998    0.39432004    -0.23450000
opls_145-335    C    0.66115013    0.31346005    0.43763993    -0.23450000
opls_916-336    C    0.75232031    0.31849005    0.45586995    0.12450000
opls_145-337    C    0.78979976    0.35183005    0.45631003    -0.23270000
opls_145-338    C    0.81246020    0.36760997    0.45641995    -0.23280000
opls_142-339    C    0.79942028    0.29428999    0.28860015    0.08280000
opls_145-340    C    0.85427045    0.28641997    0.79311011    -0.22280000
opls_145-341    C    0.84522966    0.27749001    0.83480014    -0.22300000
opls_145-342    C    0.76590954    0.26717003    0.84014005    0.01960000
opls_145-343    C    0.69389012    0.26629994    0.80360013    -0.22290000
opls_145-344    C    0.70382996    0.27509004    0.76150996    -0.22300000
opls_145-345    C    0.78487973    0.28513994    0.75578018    0.00860000
opls_145-346    C    0.83327029    0.42617999    0.45627998    -0.22500000
opls_145-347    C    0.87241953    0.44115002    0.45627998    -0.22460000
opls_633-348    S    0.77152999    0.73253001    0.05830997    0.06190000
opls_474-349    S    0.61445026    0.01871002    0.50000000    0.03820000
opls_633-350    S    0.22847001    0.26746999    0.05830997    0.06190000
opls_474-351    S    0.38554974    0.98128998    0.50000000    0.03820000
opls_633-352    S    0.22847001    0.73253001    0.94169003    0.06190000
opls_474-353    S    0.38554974    0.01871002    0.50000000    0.03820000
opls_633-354    S    0.77152999    0.26746999    0.94169003    0.06190000
opls_474-355    S    0.61445026    0.98128998    0.50000000    0.03820000
opls_633-356    S    0.22847001    0.26746999    0.94169003    0.06200000
opls_633-357    S    0.77152999    0.73253001    0.94169003    0.06190000
opls_633-358    S    0.77152999    0.26746999    0.05830997    0.06190000
opls_633-359    S    0.22847001    0.73253001    0.05830997    0.06190000
opls_633-360    S    0.27152999    0.23253001    0.05830997    0.06190000
opls_474-361    S    0.11445026    0.51871002    0.50000000    0.03820000
opls_633-362    S    0.72847001    0.76746999    0.05830997    0.06190000
opls_474-363    S    0.88554974    0.48128998    0.50000000    0.03820000
opls_633-364    S    0.72847001    0.23253001    0.94169003    0.06200000
opls_474-365    S    0.88554974    0.51871002    0.50000000    0.03820000
opls_633-366    S    0.27152999    0.76746999    0.94169003    0.06190000
opls_474-367    S    0.11445026    0.48128998    0.50000000    0.03820000
opls_633-368    S    0.72847001    0.76746999    0.94169003    0.06190000
opls_633-369    S    0.27152999    0.23253001    0.94169003    0.06190000
opls_633-370    S    0.27152999    0.76746999    0.05830997    0.06190000
opls_633-371    S    0.72847001    0.23253001    0.05830997    0.06190000
opls_750-372    N    0.76475961    0.79388005    0.32345012    -0.17490000
opls_750-373    N    0.65039012    0.89153996    0.50000000    -0.20410000
opls_239-374    N    0.24323009    0.32714995    0.50000000    -0.15150000
opls_750-375    N    0.23524039    0.20611995    0.32345012    -0.17490000
opls_750-376    N    0.34960988    0.10846004    0.50000000    -0.20410000
opls_239-377    N    0.75676991    0.67285005    0.50000000    -0.15150000
opls_750-378    N    0.23524039    0.79388005    0.67654988    -0.17490000
opls_750-379    N    0.34960988    0.89153996    0.50000000    -0.20400000
opls_239-380    N    0.75676991    0.32714995    0.50000000    -0.15140000
opls_750-381    N    0.76475961    0.20611995    0.67654988    -0.17480000
opls_750-382    N    0.65039012    0.10846004    0.50000000    -0.20400000
opls_239-383    N    0.24323009    0.67285005    0.50000000    -0.15150000
opls_750-384    N    0.23524039    0.20611995    0.67654988    -0.17490000
opls_750-385    N    0.76475961    0.79388005    0.67654988    -0.17480000
opls_750-386    N    0.76475961    0.20611995    0.32345012    -0.17490000
opls_750-387    N    0.23524039    0.79388005    0.32345012    -0.17490000
opls_750-388    N    0.26475961    0.29388005    0.32345012    -0.17490000
opls_750-389    N    0.15039012    0.39153996    0.50000000    -0.20410000
opls_239-390    N    0.74323009    0.82714995    0.50000000    -0.15150000
opls_750-391    N    0.73524039    0.70611995    0.32345012    -0.17490000
opls_750-392    N    0.84960988    0.60846004    0.50000000    -0.20410000
opls_239-393    N    0.25676991    0.17285005    0.50000000    -0.15150000
opls_750-394    N    0.73524039    0.29388005    0.67654988    -0.17490000
opls_750-395    N    0.84960988    0.39153996    0.50000000    -0.20410000
opls_239-396    N    0.25676991    0.82714995    0.50000000    -0.15150000
opls_750-397    N    0.26475961    0.70611995    0.67654988    -0.17490000
opls_750-398    N    0.15039012    0.60846004    0.50000000    -0.20410000
opls_239-399    N    0.74323009    0.17285005    0.50000000    -0.15150000
opls_750-400    N    0.73524039    0.70611995    0.67654988    -0.17490000
opls_750-401    N    0.26475961    0.29388005    0.67654988    -0.17480000
opls_750-402    N    0.26475961    0.70611995    0.32345012    -0.17480000
opls_750-403    N    0.73524039    0.29388005    0.32345012    -0.17490000
opls_146-404    H    0.58977030    0.81875001    0.44485008    0.20220000
opls_146-405    H    0.59584977    0.80429001    0.36889014    0.20220000
opls_146-406    H    0.91355977    0.80143000    0.38049006    0.20230000
opls_146-407    H    0.90670956    0.81605998    0.45666985    0.20220000
opls_146-408    H    0.71922964    0.84616003    0.42184004    0.20180000
opls_146-409    H    0.67870998    0.87369003    0.42255018    0.20190000
opls_144-410    H    0.63589995    0.80164997    0.29104018    0.09490000
opls_146-411    H    0.58437034    0.79436997    0.78991012    0.20220000
opls_146-412    H    0.59902968    0.77851996    0.86267996    0.20220000
opls_146-413    H    0.86963972    0.75875999    0.80752015    0.20220000
opls_146-414    H    0.85167977    0.77399999    0.73354989    0.20220000
opls_146-415    H    0.67991979    0.92035999    0.42229990    0.20180000
opls_146-416    H    0.60997976    0.94668995    0.42229990    0.20180000
opls_144-417    H    0.29490035    0.39964006    0.50000000    0.08190000
opls_146-418    H    0.41022970    0.18124999    0.44485008    0.20220000
opls_146-419    H    0.40415023    0.19570999    0.36889014    0.20220000
opls_146-420    H    0.08644023    0.19857000    0.38049006    0.20220000
opls_146-421    H    0.09329044    0.18394002    0.45666985    0.20220000
opls_146-422    H    0.28077036    0.15383997    0.42184004    0.20190000
opls_146-423    H    0.32129002    0.12630997    0.42255018    0.20170000
opls_144-424    H    0.36410005    0.19835003    0.29104018    0.09490000
opls_146-425    H    0.41562966    0.20563003    0.78991012    0.20230000
opls_146-426    H    0.40097032    0.22148004    0.86267996    0.20220000
opls_146-427    H    0.13036028    0.24124001    0.80752015    0.20220000
opls_146-428    H    0.14832023    0.22600001    0.73354989    0.20220000
opls_146-429    H    0.32008021    0.07964001    0.42229990    0.20190000
opls_146-430    H    0.39002024    0.05331005    0.42229990    0.20180000
opls_144-431    H    0.70509965    0.60035994    0.50000000    0.08200000
opls_146-432    H    0.41022970    0.81875001    0.55514992    0.20220000
opls_146-433    H    0.40415023    0.80429001    0.63110986    0.20220000
opls_146-434    H    0.08644023    0.80143000    0.61950994    0.20220000
opls_146-435    H    0.09329044    0.81605998    0.54333015    0.20220000
opls_146-436    H    0.28077036    0.84616003    0.57815996    0.20180000
opls_146-437    H    0.32129002    0.87369003    0.57744982    0.20190000
opls_144-438    H    0.36410005    0.80164997    0.70895982    0.09490000
opls_146-439    H    0.41562966    0.79436997    0.21008988    0.20230000
opls_146-440    H    0.40097032    0.77851996    0.13732004    0.20220000
opls_146-441    H    0.13036028    0.75875999    0.19247985    0.20220000
opls_146-442    H    0.14832023    0.77399999    0.26645011    0.20220000
opls_146-443    H    0.32008021    0.92035999    0.57770010    0.20180000
opls_146-444    H    0.39002024    0.94668995    0.57770010    0.20180000
opls_144-445    H    0.70509965    0.39964006    0.50000000    0.08200000
opls_146-446    H    0.58977030    0.18124999    0.55514992    0.20220000
opls_146-447    H    0.59584977    0.19570999    0.63110986    0.20220000
opls_146-448    H    0.91355977    0.19857000    0.61950994    0.20220000
opls_146-449    H    0.90670956    0.18394002    0.54333015    0.20220000
opls_146-450    H    0.71922964    0.15383997    0.57815996    0.20180000
opls_146-451    H    0.67870998    0.12630997    0.57744982    0.20180000
opls_144-452    H    0.63589995    0.19835003    0.70895982    0.09490000
opls_146-453    H    0.58437034    0.20563003    0.21008988    0.20220000
opls_146-454    H    0.59902968    0.22148004    0.13732004    0.20230000
opls_146-455    H    0.86963972    0.24124001    0.19247985    0.20220000
opls_146-456    H    0.85167977    0.22600001    0.26645011    0.20220000
opls_146-457    H    0.67991979    0.07964001    0.57770010    0.20180000
opls_146-458    H    0.60997976    0.05331005    0.57770010    0.20180000
opls_144-459    H    0.29490035    0.60035994    0.50000000    0.08190000
opls_146-460    H    0.41022970    0.18124999    0.55514992    0.20220000
opls_146-461    H    0.40415023    0.19570999    0.63110986    0.20220000
opls_146-462    H    0.08644023    0.19857000    0.61950994    0.20220000
opls_146-463    H    0.09329044    0.18394002    0.54333015    0.20220000
opls_146-464    H    0.28077036    0.15383997    0.57815996    0.20200000
opls_146-465    H    0.32129002    0.12630997    0.57744982    0.20170000
opls_144-466    H    0.36410005    0.19835003    0.70895982    0.09490000
opls_146-467    H    0.41562966    0.20563003    0.21008988    0.20220000
opls_146-468    H    0.40097032    0.22148004    0.13732004    0.20220000
opls_146-469    H    0.13036028    0.24124001    0.19247985    0.20220000
opls_146-470    H    0.14832023    0.22600001    0.26645011    0.20220000
opls_146-471    H    0.32008021    0.07964001    0.57770010    0.20180000
opls_146-472    H    0.39002024    0.05331005    0.57770010    0.20180000
opls_146-473    H    0.58977030    0.81875001    0.55514992    0.20220000
opls_146-474    H    0.59584977    0.80429001    0.63110986    0.20220000
opls_146-475    H    0.91355977    0.80143000    0.61950994    0.20220000
opls_146-476    H    0.90670956    0.81605998    0.54333015    0.20220000
opls_146-477    H    0.71922964    0.84616003    0.57815996    0.20190000
opls_146-478    H    0.67870998    0.87369003    0.57744982    0.20170000
opls_144-479    H    0.63589995    0.80164997    0.70895982    0.09490000
opls_146-480    H    0.58437034    0.79436997    0.21008988    0.20220000
opls_146-481    H    0.59902968    0.77851996    0.13732004    0.20220000
opls_146-482    H    0.86963972    0.75875999    0.19247985    0.20220000
opls_146-483    H    0.85167977    0.77399999    0.26645011    0.20220000
opls_146-484    H    0.67991979    0.92035999    0.57770010    0.20180000
opls_146-485    H    0.60997976    0.94668995    0.57770010    0.20180000
opls_146-486    H    0.58977030    0.18124999    0.44485008    0.20220000
opls_146-487    H    0.59584977    0.19570999    0.36889014    0.20220000
opls_146-488    H    0.91355977    0.19857000    0.38049006    0.20220000
opls_146-489    H    0.90670956    0.18394002    0.45666985    0.20220000
opls_146-490    H    0.71922964    0.15383997    0.42184004    0.20180000
opls_146-491    H    0.67870998    0.12630997    0.42255018    0.20170000
opls_144-492    H    0.63589995    0.19835003    0.29104018    0.09490000
opls_146-493    H    0.58437034    0.20563003    0.78991012    0.20220000
opls_146-494    H    0.59902968    0.22148004    0.86267996    0.20220000
opls_146-495    H    0.86963972    0.24124001    0.80752015    0.20220000
opls_146-496    H    0.85167977    0.22600001    0.73354989    0.20230000
opls_146-497    H    0.67991979    0.07964001    0.42229990    0.20180000
opls_146-498    H    0.60997976    0.05331005    0.42229990    0.20190000
opls_146-499    H    0.41022970    0.81875001    0.44485008    0.20230000
opls_146-500    H    0.40415023    0.80429001    0.36889014    0.20220000
opls_146-501    H    0.08644023    0.80143000    0.38049006    0.20220000
opls_146-502    H    0.09329044    0.81605998    0.45666985    0.20220000
opls_146-503    H    0.28077036    0.84616003    0.42184004    0.20180000
opls_146-504    H    0.32129002    0.87369003    0.42255018    0.20170000
opls_144-505    H    0.36410005    0.80164997    0.29104018    0.09500000
opls_146-506    H    0.41562966    0.79436997    0.78991012    0.20220000
opls_146-507    H    0.40097032    0.77851996    0.86267996    0.20220000
opls_146-508    H    0.13036028    0.75875999    0.80752015    0.20220000
opls_146-509    H    0.14832023    0.77399999    0.73354989    0.20230000
opls_146-510    H    0.32008021    0.92035999    0.42229990    0.20180000
opls_146-511    H    0.39002024    0.94668995    0.42229990    0.20180000
opls_146-512    H    0.08977030    0.31875001    0.44485008    0.20220000
opls_146-513    H    0.09584977    0.30429001    0.36889014    0.20220000
opls_146-514    H    0.41355977    0.30143000    0.38049006    0.20220000
opls_146-515    H    0.40670956    0.31605998    0.45666985    0.20220000
opls_146-516    H    0.21922964    0.34616003    0.42184004    0.20180000
opls_146-517    H    0.17870998    0.37369003    0.42255018    0.20170000
opls_144-518    H    0.13589995    0.30164997    0.29104018    0.09490000
opls_146-519    H    0.08437034    0.29436997    0.78991012    0.20220000
opls_146-520    H    0.09902968    0.27851996    0.86267996    0.20220000
opls_146-521    H    0.36963972    0.25875999    0.80752015    0.20230000
opls_146-522    H    0.35167977    0.27399999    0.73354989    0.20220000
opls_146-523    H    0.17991979    0.42035999    0.42229990    0.20180000
opls_146-524    H    0.10997976    0.44668995    0.42229990    0.20180000
opls_144-525    H    0.79490035    0.89964006    0.50000000    0.08190000
opls_146-526    H    0.91022970    0.68124999    0.44485008    0.20220000
opls_146-527    H    0.90415023    0.69570999    0.36889014    0.20220000
opls_146-528    H    0.58644023    0.69857000    0.38049006    0.20230000
opls_146-529    H    0.59329044    0.68394002    0.45666985    0.20220000
opls_146-530    H    0.78077036    0.65383997    0.42184004    0.20190000
opls_146-531    H    0.82129002    0.62630997    0.42255018    0.20170000
opls_144-532    H    0.86410005    0.69835003    0.29104018    0.09490000
opls_146-533    H    0.91562966    0.70563003    0.78991012    0.20220000
opls_146-534    H    0.90097032    0.72148004    0.86267996    0.20220000
opls_146-535    H    0.63036028    0.74124001    0.80752015    0.20220000
opls_146-536    H    0.64832023    0.72600001    0.73354989    0.20220000
opls_146-537    H    0.82008021    0.57964001    0.42229990    0.20180000
opls_146-538    H    0.89002024    0.55331005    0.42229990    0.20180000
opls_144-539    H    0.20509965    0.10035994    0.50000000    0.08190000
opls_146-540    H    0.91022970    0.31875001    0.55514992    0.20220000
opls_146-541    H    0.90415023    0.30429001    0.63110986    0.20220000
opls_146-542    H    0.58644023    0.30143000    0.61950994    0.20220000
opls_146-543    H    0.59329044    0.31605998    0.54333015    0.20220000
opls_146-544    H    0.78077036    0.34616003    0.57815996    0.20180000
opls_146-545    H    0.82129002    0.37369003    0.57744982    0.20170000
opls_144-546    H    0.86410005    0.30164997    0.70895982    0.09490000
opls_146-547    H    0.91562966    0.29436997    0.21008988    0.20220000
opls_146-548    H    0.90097032    0.27851996    0.13732004    0.20220000
opls_146-549    H    0.63036028    0.25875999    0.19247985    0.20230000
opls_146-550    H    0.64832023    0.27399999    0.26645011    0.20220000
opls_146-551    H    0.82008021    0.42035999    0.57770010    0.20180000
opls_146-552    H    0.89002024    0.44668995    0.57770010    0.20180000
opls_144-553    H    0.20509965    0.89964006    0.50000000    0.08190000
opls_146-554    H    0.08977030    0.68124999    0.55514992    0.20220000
opls_146-555    H    0.09584977    0.69570999    0.63110986    0.20220000
opls_146-556    H    0.41355977    0.69857000    0.61950994    0.20220000
opls_146-557    H    0.40670956    0.68394002    0.54333015    0.20220000
opls_146-558    H    0.21922964    0.65383997    0.57815996    0.20180000
opls_146-559    H    0.17870998    0.62630997    0.57744982    0.20170000
opls_144-560    H    0.13589995    0.69835003    0.70895982    0.09490000
opls_146-561    H    0.08437034    0.70563003    0.21008988    0.20230000
opls_146-562    H    0.09902968    0.72148004    0.13732004    0.20220000
opls_146-563    H    0.36963972    0.74124001    0.19247985    0.20220000
opls_146-564    H    0.35167977    0.72600001    0.26645011    0.20220000
opls_146-565    H    0.17991979    0.57964001    0.57770010    0.20180000
opls_146-566    H    0.10997976    0.55331005    0.57770010    0.20180000
opls_144-567    H    0.79490035    0.10035994    0.50000000    0.08190000
opls_146-568    H    0.91022970    0.68124999    0.55514992    0.20220000
opls_146-569    H    0.90415023    0.69570999    0.63110986    0.20220000
opls_146-570    H    0.58644023    0.69857000    0.61950994    0.20220000
opls_146-571    H    0.59329044    0.68394002    0.54333015    0.20220000
opls_146-572    H    0.78077036    0.65383997    0.57815996    0.20180000
opls_146-573    H    0.82129002    0.62630997    0.57744982    0.20170000
opls_144-574    H    0.86410005    0.69835003    0.70895982    0.09490000
opls_146-575    H    0.91562966    0.70563003    0.21008988    0.20220000
opls_146-576    H    0.90097032    0.72148004    0.13732004    0.20220000
opls_146-577    H    0.63036028    0.74124001    0.19247985    0.20220000
opls_146-578    H    0.64832023    0.72600001    0.26645011    0.20220000
opls_146-579    H    0.82008021    0.57964001    0.57770010    0.20180000
opls_146-580    H    0.89002024    0.55331005    0.57770010    0.20190000
opls_146-581    H    0.08977030    0.31875001    0.55514992    0.20230000
opls_146-582    H    0.09584977    0.30429001    0.63110986    0.20220000
opls_146-583    H    0.41355977    0.30143000    0.61950994    0.20220000
opls_146-584    H    0.40670956    0.31605998    0.54333015    0.20220000
opls_146-585    H    0.21922964    0.34616003    0.57815996    0.20180000
opls_146-586    H    0.17870998    0.37369003    0.57744982    0.20170000
opls_144-587    H    0.13589995    0.30164997    0.70895982    0.09490000
opls_146-588    H    0.08437034    0.29436997    0.21008988    0.20220000
opls_146-589    H    0.09902968    0.27851996    0.13732004    0.20230000
opls_146-590    H    0.36963972    0.25875999    0.19247985    0.20230000
opls_146-591    H    0.35167977    0.27399999    0.26645011    0.20220000
opls_146-592    H    0.17991979    0.42035999    0.57770010    0.20180000
opls_146-593    H    0.10997976    0.44668995    0.57770010    0.20180000
opls_146-594    H    0.08977030    0.68124999    0.44485008    0.20220000
opls_146-595    H    0.09584977    0.69570999    0.36889014    0.20220000
opls_146-596    H    0.41355977    0.69857000    0.38049006    0.20220000
opls_146-597    H    0.40670956    0.68394002    0.45666985    0.20220000
opls_146-598    H    0.21922964    0.65383997    0.42184004    0.20180000
opls_146-599    H    0.17870998    0.62630997    0.42255018    0.20170000
opls_144-600    H    0.13589995    0.69835003    0.29104018    0.09500000
opls_146-601    H    0.08437034    0.70563003    0.78991012    0.20220000
opls_146-602    H    0.09902968    0.72148004    0.86267996    0.20220000
opls_146-603    H    0.36963972    0.74124001    0.80752015    0.20220000
opls_146-604    H    0.35167977    0.72600001    0.73354989    0.20220000
opls_146-605    H    0.17991979    0.57964001    0.42229990    0.20180000
opls_146-606    H    0.10997976    0.55331005    0.42229990    0.20180000
opls_146-607    H    0.91022970    0.31875001    0.44485008    0.20240000
opls_146-608    H    0.90415023    0.30429001    0.36889014    0.20230000
opls_146-609    H    0.58644023    0.30143000    0.38049006    0.20220000
opls_146-610    H    0.59329044    0.31605998    0.45666985    0.20220000
opls_146-611    H    0.78077036    0.34616003    0.42184004    0.20180000
opls_146-612    H    0.82129002    0.37369003    0.42255018    0.20170000
opls_144-613    H    0.86410005    0.30164997    0.29104018    0.09490000
opls_146-614    H    0.91562966    0.29436997    0.78991012    0.20230000
opls_146-615    H    0.90097032    0.27851996    0.86267996    0.20220000
opls_146-616    H    0.63036028    0.25875999    0.80752015    0.20220000
opls_146-617    H    0.64832023    0.27399999    0.73354989    0.20220000
opls_146-618    H    0.82008021    0.42035999    0.42229990    0.20180000
opls_146-619    H    0.89002024    0.44668995    0.42229990    0.20180000
