#======================================================================
# Crystal Data Generated By AuToFF
#----------------------------------------------------------------------

data_AuToFF_phase_1

_cell_length_a                         33.0300
_cell_length_b                         33.0300
_cell_length_c                         12.8000
_cell_angle_alpha                      90.00
_cell_angle_beta                       90.00
_cell_angle_gamma                      120.00
_symmetry_space_group_name_H-M_alt     'P 1'
_symmetry_space_group_IT_number        1

loop_
_space_group_symop_operation_xyz
   'x, y, z'

loop_
   _atom_site_label
   _atom_site_type_symbol
   _atom_site_fract_x
   _atom_site_fract_y
   _atom_site_fract_z
   _atom_site_charge
opls_700-0    C    0.38286990    0.68602984    0.43211016    0.05910000
opls_145-1    C    0.36294992    0.71527980    0.43285000    -0.11670000
opls_700-2    C    0.43198008    0.70538007    0.42697969    0.05990000
opls_145-3    C    0.45200001    0.68803999    0.35447031    -0.20780000
opls_145-4    C    0.50075011    0.70812996    0.34572969    -0.24140000
opls_145-5    C    0.53119011    0.74648014    0.40910000    0.16950000
opls_145-6    C    0.51146998    0.76348007    0.48252969    -0.24140000
opls_145-7    C    0.46265002    0.74316986    0.49170000    -0.20780000
opls_142-8    C    0.60721002    0.75898013    0.34722031    0.08730000
opls_700-9    C    0.95050017    0.97159010    0.27128984    0.02120000
opls_700-10    C    0.97891996    0.95038004    0.26607969    0.00580000
opls_700-11    C    0.05586008    0.95793996    0.75818984    0.07120000
opls_145-12    C    0.05961006    0.92586984    0.69167031    -0.23360000
opls_145-13    C    0.07778007    0.89806998    0.72918984    -0.10590000
opls_145-14    C    0.09295002    0.90192003    0.83405000    -0.25850000
opls_145-15    C    0.09541988    0.93889002    0.89473984    -0.15650000
opls_145-16    C    0.07627016    0.96577010    0.85846016    -0.23420000
opls_136-17    C    0.06065993    0.83659992    0.98557969    -0.33730000
opls_136-18    C    0.06746013    0.80673012    0.06997031    -0.15570000
opls_136-19    C    0.02412985    0.78236989    0.14307031    -0.17260000
opls_136-20    C    0.03142991    0.75796002    0.23891016    -0.17260000
opls_136-21    C    0.98662006    0.72778993    0.30496016    -0.17740000
opls_136-22    C    0.96106998    0.75295982    0.34902969    -0.16020000
opls_142-23    C    0.98996001    0.79380014    0.41282969    -0.12770000
opls_143-24    C    0.00411989    0.79124008    0.50927969    -0.35220000
opls_135-25    C    0.15843984    0.88937983    0.94320000    -0.51130000
opls_135-26    C    0.09905998    0.82052990    0.80692969    -0.51120000
opls_700-27    C    0.09859987    0.05629995    0.71840000    0.07460000
opls_145-28    C    0.11941983    0.06061985    0.61977969    -0.23380000
opls_145-29    C    0.16766995    0.09098991    0.60577031    -0.20780000
opls_700-30    C    0.19665016    0.11729002    0.69017969    0.05800000
opls_145-31    C    0.17537989    0.11137983    0.78942031    -0.23370000
opls_145-32    C    0.12713023    0.08157017    0.80353984    -0.23420000
opls_700-33    C    0.24516993    0.14860992    0.67667031    0.05800000
opls_145-34    C    0.27294006    0.13726008    0.61222031    -0.20780000
opls_145-35    C    0.32140016    0.16768013    0.60235000    -0.20780000
opls_700-36    C    0.34400995    0.21075015    0.65665000    0.04050000
opls_145-37    C    0.31617989    0.22287992    0.71847031    -0.20800000
opls_145-38    C    0.26775019    0.19250008    0.72798984    -0.20770000
opls_700-39    C    0.31397006    0.69683990    0.43211016    0.05910000
opls_145-40    C    0.28471989    0.64766987    0.43285000    -0.11670000
opls_700-41    C    0.29461997    0.72659992    0.42697969    0.05990000
opls_145-42    C    0.31196005    0.76396006    0.35447031    -0.20780000
opls_145-43    C    0.29187005    0.79261992    0.34572969    -0.24140000
opls_145-44    C    0.25352003    0.78471006    0.40910000    0.16950000
opls_145-45    C    0.23651999    0.74799002    0.48252969    -0.24140000
opls_145-46    C    0.25682999    0.71948014    0.49170000    -0.20770000
opls_142-47    C    0.24102000    0.84823012    0.34722031    0.08730000
opls_700-48    C    0.02840981    0.97890985    0.27128984    0.02120000
opls_700-49    C    0.04961996    0.02853995    0.26607969    0.00580000
opls_700-50    C    0.04205984    0.09791986    0.75818984    0.07120000
opls_145-51    C    0.07413009    0.13374005    0.69167031    -0.23380000
opls_145-52    C    0.10193004    0.17970992    0.72918984    -0.10590000
opls_145-53    C    0.09807996    0.19103004    0.83405000    -0.25840000
opls_145-54    C    0.06110995    0.15652991    0.89473984    -0.15650000
opls_145-55    C    0.03422997    0.11049991    0.85846016    -0.23420000
opls_136-56    C    0.16340004    0.22406014    0.98557969    -0.33720000
opls_136-57    C    0.19326985    0.26072984    0.06997031    -0.15570000
opls_136-58    C    0.21762990    0.24175996    0.14307031    -0.17260000
opls_136-59    C    0.24203987    0.27347000    0.23891016    -0.17260000
opls_136-60    C    0.27221011    0.25883016    0.30496016    -0.17730000
opls_136-61    C    0.24703988    0.20811003    0.34902969    -0.16020000
opls_142-62    C    0.20619986    0.19615995    0.41282969    -0.12770000
opls_143-63    C    0.20875994    0.21287986    0.50927969    -0.35210000
opls_135-64    C    0.11061987    0.26905990    0.94320000    -0.51120000
opls_135-65    C    0.17946996    0.27852998    0.80692969    -0.51130000
opls_700-66    C    0.94370004    0.04229986    0.71840000    0.07460000
opls_145-67    C    0.93937996    0.05879988    0.61977969    -0.23380000
opls_145-68    C    0.90901004    0.07668008    0.60577031    -0.20780000
opls_700-69    C    0.88271000    0.07936005    0.69017969    0.05800000
opls_145-70    C    0.88862007    0.06400005    0.78942031    -0.23370000
opls_145-71    C    0.91843009    0.04556015    0.80353984    -0.23410000
opls_700-72    C    0.85138988    0.09655995    0.67667031    0.05800000
opls_145-73    C    0.86274006    0.13567993    0.61222031    -0.20780000
opls_145-74    C    0.83231983    0.15371990    0.60235000    -0.20780000
opls_700-75    C    0.78925007    0.13326006    0.65665000    0.04050000
opls_145-76    C    0.77711988    0.09330001    0.71847031    -0.20800000
opls_145-77    C    0.80749991    0.07524991    0.72798984    -0.20780000
opls_700-78    C    0.30315987    0.61712991    0.43211016    0.05910000
opls_145-79    C    0.35233002    0.63704998    0.43285000    -0.11670000
opls_700-80    C    0.27339995    0.56802001    0.42697969    0.05990000
opls_145-81    C    0.23603994    0.54799995    0.35447031    -0.20780000
opls_145-82    C    0.20738013    0.49925013    0.34572969    -0.24140000
opls_145-83    C    0.21529003    0.46881015    0.40910000    0.16950000
opls_145-84    C    0.25201003    0.48852991    0.48252969    -0.24140000
opls_145-85    C    0.28051999    0.53735000    0.49170000    -0.20780000
opls_142-86    C    0.15177016    0.39279010    0.34722031    0.08730000
opls_700-87    C    0.02109002    0.04950005    0.27128984    0.02120000
opls_700-88    C    0.97146008    0.02108001    0.26607969    0.00580000
opls_700-89    C    0.90207991    0.94413983    0.75818984    0.07120000
opls_145-90    C    0.86626015    0.94039012    0.69167031    -0.23380000
opls_145-91    C    0.82029019    0.92222010    0.72918984    -0.10580000
opls_145-92    C    0.80897002    0.90704993    0.83405000    -0.25850000
opls_145-93    C    0.84347017    0.90458007    0.89473984    -0.15650000
opls_145-94    C    0.88949987    0.92372999    0.85846016    -0.23420000
opls_136-95    C    0.77594003    0.93933994    0.98557969    -0.33720000
opls_136-96    C    0.73927002    0.93254004    0.06997031    -0.15560000
opls_136-97    C    0.75823977    0.97586980    0.14307031    -0.17260000
opls_136-98    C    0.72652992    0.96856998    0.23891016    -0.17260000
opls_136-99    C    0.74116982    0.01337991    0.30496016    -0.17740000
opls_136-100    C    0.79189014    0.03893015    0.34902969    -0.16020000
opls_142-101    C    0.80383982    0.01003992    0.41282969    -0.12770000
opls_143-102    C    0.78712017    0.99588006    0.50927969    -0.35220000
opls_135-103    C    0.73093981    0.84155992    0.94320000    -0.51130000
opls_135-104    C    0.72147006    0.90094012    0.80692969    -0.51130000
opls_700-105    C    0.95769992    0.90139983    0.71840000    0.07460000
opls_145-106    C    0.94120004    0.88057992    0.61977969    -0.23380000
opls_145-107    C    0.92332001    0.83233001    0.60577031    -0.20770000
opls_700-108    C    0.92063984    0.80334992    0.69017969    0.05800000
opls_145-109    C    0.93600004    0.82462012    0.78942031    -0.23380000
opls_145-110    C    0.95444016    0.87287003    0.80353984    -0.23420000
opls_700-111    C    0.90344019    0.75483013    0.67667031    0.05800000
opls_145-112    C    0.86431988    0.72705998    0.61222031    -0.20770000
opls_145-113    C    0.84628000    0.67859997    0.60235000    -0.20780000
opls_700-114    C    0.86674015    0.65599014    0.65665000    0.04050000
opls_145-115    C    0.90669992    0.68382007    0.71847031    -0.20800000
opls_145-116    C    0.92474990    0.73225002    0.72798984    -0.20780000
opls_700-117    C    0.61713010    0.31397016    0.56788984    0.05910000
opls_145-118    C    0.63704990    0.28471985    0.56715000    -0.11660000
opls_700-119    C    0.56801992    0.29461993    0.57302031    0.05990000
opls_145-120    C    0.54799999    0.31196001    0.64552969    -0.20780000
opls_145-121    C    0.49924989    0.29187004    0.65427031    -0.24140000
opls_145-122    C    0.46880989    0.25351986    0.59090000    0.16950000
opls_145-123    C    0.48853002    0.23651993    0.51747031    -0.24140000
opls_145-124    C    0.53734998    0.25683014    0.50830000    -0.20780000
opls_142-125    C    0.39278998    0.24101987    0.65277969    0.08730000
opls_700-126    C    0.04949983    0.02840990    0.72871016    0.02120000
opls_700-127    C    0.02108004    0.04961996    0.73392031    0.00580000
opls_700-128    C    0.94413992    0.04206004    0.24181016    0.07120000
opls_145-129    C    0.94038994    0.07413016    0.30832969    -0.23380000
opls_145-130    C    0.92221993    0.10193002    0.27081016    -0.10590000
opls_145-131    C    0.90704998    0.09807997    0.16595000    -0.25850000
opls_145-132    C    0.90458012    0.06110998    0.10526016    -0.15650000
opls_145-133    C    0.92372984    0.03422990    0.14153984    -0.23420000
opls_136-134    C    0.93934007    0.16340008    0.01442031    -0.33730000
opls_136-135    C    0.93253987    0.19326988    0.93002969    -0.15570000
opls_136-136    C    0.97587015    0.21763011    0.85692969    -0.17260000
opls_136-137    C    0.96857009    0.24203998    0.76108984    -0.17260000
opls_136-138    C    0.01337994    0.27221007    0.69503984    -0.17740000
opls_136-139    C    0.03892985    0.24703983    0.65097031    -0.16020000
opls_142-140    C    0.01003999    0.20619986    0.58717031    -0.12770000
opls_143-141    C    0.99588011    0.20875992    0.49072031    -0.35220000
opls_135-142    C    0.84156016    0.11062017    0.05680000    -0.51120000
opls_135-143    C    0.90094002    0.17947010    0.19307031    -0.51130000
opls_700-144    C    0.90140013    0.94370005    0.28160000    0.07460000
opls_145-145    C    0.88058000    0.93937980    0.38022031    -0.23380000
opls_145-146    C    0.83233005    0.90901009    0.39422969    -0.20780000
opls_700-147    C    0.80334984    0.88270998    0.30982031    0.05800000
opls_145-148    C    0.82461993    0.88861982    0.21057969    -0.23380000
opls_145-149    C    0.87286977    0.91842983    0.19646016    -0.23420000
opls_700-150    C    0.75483007    0.85139008    0.32332969    0.05800000
opls_145-151    C    0.72705994    0.86273992    0.38777969    -0.20780000
opls_145-152    C    0.67859984    0.83231987    0.39765000    -0.20780000
opls_700-153    C    0.65599005    0.78924985    0.34335000    0.04050000
opls_145-154    C    0.68382011    0.77712008    0.28152969    -0.20800000
opls_145-155    C    0.73225011    0.80749992    0.27201016    -0.20780000
opls_700-156    C    0.68602994    0.30316010    0.56788984    0.05910000
opls_145-157    C    0.71528011    0.35233013    0.56715000    -0.11670000
opls_700-158    C    0.70538003    0.27340008    0.57302031    0.05990000
opls_145-159    C    0.68803995    0.23603994    0.64552969    -0.20780000
opls_145-160    C    0.70812995    0.20738008    0.65427031    -0.24140000
opls_145-161    C    0.74647997    0.21528994    0.59090000    0.16960000
opls_145-162    C    0.76348001    0.25200998    0.51747031    -0.24140000
opls_145-163    C    0.74317001    0.28051986    0.50830000    -0.20770000
opls_142-164    C    0.75898000    0.15176988    0.65277969    0.08730000
opls_700-165    C    0.97159019    0.02109015    0.72871016    0.02120000
opls_700-166    C    0.95038004    0.97146005    0.73392031    0.00580000
opls_700-167    C    0.95794016    0.90208014    0.24181016    0.07120000
opls_145-168    C    0.92586991    0.86625995    0.30832969    -0.23370000
opls_145-169    C    0.89806996    0.82029008    0.27081016    -0.10590000
opls_145-170    C    0.90192004    0.80896996    0.16595000    -0.25850000
opls_145-171    C    0.93889005    0.84347009    0.10526016    -0.15650000
opls_145-172    C    0.96577003    0.88950009    0.14153984    -0.23420000
opls_136-173    C    0.83659996    0.77593986    0.01442031    -0.33720000
opls_136-174    C    0.80672997    0.73926982    0.93002969    -0.15570000
opls_136-175    C    0.78237010    0.75824004    0.85692969    -0.17260000
opls_136-176    C    0.75796013    0.72653000    0.76108984    -0.17260000
opls_136-177    C    0.72778989    0.74116984    0.69503984    -0.17740000
opls_136-178    C    0.75296012    0.79188997    0.65097031    -0.16020000
opls_142-179    C    0.79380014    0.80384005    0.58717031    -0.12770000
opls_143-180    C    0.79124006    0.78712014    0.49072031    -0.35220000
opls_135-181    C    0.88938013    0.73094010    0.05680000    -0.51130000
opls_135-182    C    0.82053004    0.72147002    0.19307031    -0.51130000
opls_700-183    C    0.05629996    0.95770014    0.28160000    0.07460000
opls_145-184    C    0.06062004    0.94120012    0.38022031    -0.23370000
opls_145-185    C    0.09098996    0.92331992    0.39422969    -0.20780000
opls_700-186    C    0.11729000    0.92063995    0.30982031    0.05800000
opls_145-187    C    0.11137993    0.93599995    0.21057969    -0.23380000
opls_145-188    C    0.08156991    0.95443985    0.19646016    -0.23410000
opls_700-189    C    0.14861012    0.90344005    0.32332969    0.05800000
opls_145-190    C    0.13725994    0.86432007    0.38777969    -0.20780000
opls_145-191    C    0.16768017    0.84628010    0.39765000    -0.20780000
opls_700-192    C    0.21074993    0.86673994    0.34335000    0.04050000
opls_145-193    C    0.22288012    0.90669999    0.28152969    -0.20800000
opls_145-194    C    0.19250009    0.92475009    0.27201016    -0.20770000
opls_700-195    C    0.69684013    0.38287009    0.56788984    0.05920000
opls_145-196    C    0.64766998    0.36295002    0.56715000    -0.11660000
opls_700-197    C    0.72660005    0.43197999    0.57302031    0.05990000
opls_145-198    C    0.76396006    0.45200005    0.64552969    -0.20780000
opls_145-199    C    0.79261987    0.50074987    0.65427031    -0.24140000
opls_145-200    C    0.78470997    0.53118985    0.59090000    0.16950000
opls_145-201    C    0.74798997    0.51147009    0.51747031    -0.24140000
opls_145-202    C    0.71948001    0.46265000    0.50830000    -0.20780000
opls_142-203    C    0.84822984    0.60720990    0.65277969    0.08730000
opls_700-204    C    0.97890998    0.95049995    0.72871016    0.02120000
opls_700-205    C    0.02853992    0.97891999    0.73392031    0.00580000
opls_700-206    C    0.09792009    0.05586017    0.24181016    0.07120000
opls_145-207    C    0.13373985    0.05960988    0.30832969    -0.23370000
opls_145-208    C    0.17970981    0.07777990    0.27081016    -0.10590000
opls_145-209    C    0.19102998    0.09295007    0.16595000    -0.25840000
opls_145-210    C    0.15652983    0.09541993    0.10526016    -0.15650000
opls_145-211    C    0.11050013    0.07627001    0.14153984    -0.23410000
opls_136-212    C    0.22405997    0.06066006    0.01442031    -0.33730000
opls_136-213    C    0.26072998    0.06745996    0.93002969    -0.15570000
opls_136-214    C    0.24176005    0.02412985    0.85692969    -0.17260000
opls_136-215    C    0.27347008    0.03143002    0.76108984    -0.17260000
opls_136-216    C    0.25883018    0.98662009    0.69503984    -0.17740000
opls_136-217    C    0.20810986    0.96106985    0.65097031    -0.16020000
opls_142-218    C    0.19616018    0.98996008    0.58717031    -0.12770000
opls_143-219    C    0.21287983    0.00411994    0.49072031    -0.35220000
opls_135-220    C    0.26906019    0.15844008    0.05680000    -0.51130000
opls_135-221    C    0.27852994    0.09905988    0.19307031    -0.51130000
opls_700-222    C    0.04230008    0.09860017    0.28160000    0.07460000
opls_145-223    C    0.05879996    0.11942008    0.38022031    -0.23380000
opls_145-224    C    0.07667999    0.16766999    0.39422969    -0.20780000
opls_700-225    C    0.07936016    0.19665008    0.30982031    0.05800000
opls_145-226    C    0.06399996    0.17537988    0.21057969    -0.23380000
opls_145-227    C    0.04555984    0.12712997    0.19646016    -0.23420000
opls_700-228    C    0.09655981    0.24516987    0.32332969    0.05800000
opls_145-229    C    0.13568012    0.27294002    0.38777969    -0.20780000
opls_145-230    C    0.15372000    0.32140003    0.39765000    -0.20780000
opls_700-231    C    0.13325985    0.34400986    0.34335000    0.04050000
opls_145-232    C    0.09330008    0.31617993    0.28152969    -0.20790000
opls_145-233    C    0.07525010    0.26774998    0.27201016    -0.20780000
opls_750-234    N    0.57850998    0.76917981    0.40253984    -0.36500000
opls_750-235    N    0.23082003    0.80933004    0.40253984    -0.36510000
opls_750-236    N    0.19066999    0.42149015    0.40253984    -0.36510000
opls_750-237    N    0.42148985    0.23081984    0.59746016    -0.36510000
opls_750-238    N    0.76917997    0.19066996    0.59746016    -0.36500000
opls_750-239    N    0.80933001    0.57850985    0.59746016    -0.36500000
opls_146-240    H    0.38456992    0.75080983    0.43252031    0.18920000
opls_146-241    H    0.43122983    0.66087988    0.30581016    0.18920000
opls_146-242    H    0.44970000    0.75639001    0.54623984    0.18920000
opls_144-243    H    0.59303996    0.72856008    0.30532969    0.09210000
opls_146-244    H    0.51349997    0.69468992    0.29157031    0.18920000
opls_146-245    H    0.53261996    0.79104011    0.52988984    0.18920000
opls_146-246    H    0.04715000    0.92101995    0.61717031    0.18930000
opls_146-247    H    0.07825990    0.87416981    0.67947969    0.18940000
opls_146-248    H    0.10939015    0.94570006    0.96808984    0.18930000
opls_146-249    H    0.07581987    0.98988982    0.90795000    0.18920000
opls_140-250    H    0.02754996    0.81480988    0.94513984    0.11560000
opls_140-251    H    0.05736997    0.86372996    0.02685000    0.11190000
opls_140-252    H    0.07289985    0.78000980    0.03288984    0.08390000
opls_140-253    H    0.09831999    0.82933995    0.11688984    0.08420000
opls_140-254    H    0.99448009    0.75642007    0.09752969    0.09020000
opls_140-255    H    0.01563009    0.80848997    0.17131016    0.08460000
opls_140-256    H    0.04432010    0.73509010    0.21160000    0.08460000
opls_140-257    H    0.05836007    0.78441011    0.28911016    0.09930000
opls_140-258    H    0.96170989    0.69853997    0.25677031    0.08460000
opls_140-259    H    0.99604989    0.71277009    0.37022969    0.08720000
opls_140-260    H    0.93099004    0.72790984    0.39507031    0.07790000
opls_140-261    H    0.94699978    0.76340980    0.28396016    0.08170000
opls_144-262    H    0.00007006    0.82527001    0.38307969    0.18960000
opls_144-263    H    0.02382991    0.82017996    0.54953984    0.13070000
opls_144-264    H    0.99522003    0.76067984    0.54203984    0.13070000
opls_140-265    H    0.16461982    0.86359991    0.98208984    0.10540000
opls_140-266    H    0.16304992    0.91595997    0.99967969    0.10780000
opls_140-267    H    0.18416978    0.90574980    0.88113984    0.10660000
opls_140-268    H    0.10630996    0.79595991    0.84812031    0.10540000
opls_140-269    H    0.06391012    0.80136005    0.77408984    0.11250000
opls_140-270    H    0.12431990    0.83649993    0.74367969    0.11180000
opls_146-271    H    0.09933015    0.04224008    0.55731016    0.18930000
opls_146-272    H    0.18129996    0.09409009    0.53260000    0.18920000
opls_146-273    H    0.19490986    0.12889995    0.85297969    0.18930000
opls_146-274    H    0.11281007    0.07875001    0.87585000    0.18920000
opls_146-275    H    0.25830995    0.10624993    0.57257969    0.18930000
opls_146-276    H    0.34000022    0.15766014    0.55565000    0.18920000
opls_146-277    H    0.33093998    0.25399985    0.75797969    0.18930000
opls_146-278    H    0.24912001    0.20303991    0.77310000    0.18930000
opls_146-279    H    0.24919001    0.63375997    0.43252031    0.18920000
opls_146-280    H    0.33911984    0.77034989    0.30581016    0.18920000
opls_146-281    H    0.24360993    0.69331008    0.54623984    0.18920000
opls_144-282    H    0.27144004    0.86447983    0.30532969    0.09210000
opls_146-283    H    0.30530989    0.81880991    0.29157031    0.18920000
opls_146-284    H    0.20896011    0.74157992    0.52988984    0.18920000
opls_146-285    H    0.07898000    0.12613014    0.61717031    0.18930000
opls_146-286    H    0.12583008    0.20409008    0.67947969    0.18920000
opls_146-287    H    0.05429999    0.16368990    0.96808984    0.18920000
opls_146-288    H    0.01010998    0.08592992    0.90795000    0.18930000
opls_140-289    H    0.18518987    0.21274002    0.94513984    0.11560000
opls_140-290    H    0.13626994    0.19364009    0.02685000    0.11190000
opls_140-291    H    0.21999003    0.29289015    0.03288984    0.08390000
opls_140-292    H    0.17066007    0.26897984    0.11688984    0.08430000
opls_140-293    H    0.24358005    0.23805988    0.09752969    0.09020000
opls_140-294    H    0.19151001    0.20713992    0.17131016    0.08460000
opls_140-295    H    0.26490991    0.30923005    0.21160000    0.08460000
opls_140-296    H    0.21558989    0.27394998    0.28911016    0.09930000
opls_140-297    H    0.30145995    0.26316998    0.25677031    0.08460000
opls_140-298    H    0.28723001    0.28327988    0.37022969    0.08720000
opls_140-299    H    0.27209016    0.20308011    0.39507031    0.07800000
opls_140-300    H    0.23659005    0.18359004    0.28396016    0.08170000
opls_144-301    H    0.17472996    0.17479991    0.38307969    0.18970000
opls_144-302    H    0.17981983    0.20364994    0.54953984    0.13070000
opls_144-303    H    0.23931988    0.23453984    0.54203984    0.13070000
opls_140-304    H    0.13640005    0.30101990    0.98208984    0.10540000
opls_140-305    H    0.08403992    0.24708983    0.99967969    0.10780000
opls_140-306    H    0.09424989    0.27841986    0.88113984    0.10660000
opls_140-307    H    0.20404004    0.31035014    0.84812031    0.10540000
opls_140-308    H    0.19864020    0.26255016    0.77408984    0.11260000
opls_140-309    H    0.16350008    0.28782002    0.74367969    0.11180000
opls_146-310    H    0.95775997    0.05709003    0.55731016    0.18930000
opls_146-311    H    0.90590994    0.08721013    0.53260000    0.18920000
opls_146-312    H    0.87109999    0.06600985    0.85297969    0.18930000
opls_146-313    H    0.92125010    0.03405999    0.87585000    0.18920000
opls_146-314    H    0.89374997    0.15206004    0.57257969    0.18920000
opls_146-315    H    0.84234010    0.18233990    0.55565000    0.18930000
opls_146-316    H    0.74600004    0.07693983    0.75797969    0.18920000
opls_146-317    H    0.79696007    0.04608000    0.77310000    0.18920000
opls_146-318    H    0.36623990    0.61542985    0.43252031    0.18920000
opls_146-319    H    0.22964985    0.56876988    0.30581016    0.18920000
opls_146-320    H    0.30669007    0.55029991    0.54623984    0.18920000
opls_144-321    H    0.13552001    0.40696009    0.30532969    0.09210000
opls_146-322    H    0.18118997    0.48649983    0.29157031    0.18920000
opls_146-323    H    0.25841993    0.46737997    0.52988984    0.18930000
opls_146-324    H    0.87387000    0.95284990    0.61717031    0.18930000
opls_146-325    H    0.79591002    0.92174011    0.67947969    0.18920000
opls_146-326    H    0.83631017    0.89061004    0.96808984    0.18920000
opls_146-327    H    0.91406997    0.92417991    0.90795000    0.18920000
opls_140-328    H    0.78726017    0.97245010    0.94513984    0.11560000
opls_140-329    H    0.80636008    0.94262995    0.02685000    0.11190000
opls_140-330    H    0.70711012    0.92710005    0.03288984    0.08390000
opls_140-331    H    0.73102007    0.90167986    0.11688984    0.08420000
opls_140-332    H    0.76194016    0.00552005    0.09752969    0.09020000
opls_140-333    H    0.79286020    0.98437012    0.17131016    0.08470000
opls_140-334    H    0.69076999    0.95567985    0.21160000    0.08460000
opls_140-335    H    0.72605005    0.94163991    0.28911016    0.09930000
opls_140-336    H    0.73683016    0.03829005    0.25677031    0.08460000
opls_140-337    H    0.71672010    0.00395003    0.37022969    0.08720000
opls_140-338    H    0.79692010    0.06901005    0.39507031    0.07790000
opls_140-339    H    0.81641016    0.05300016    0.28396016    0.08170000
opls_144-340    H    0.82519998    0.99993008    0.38307969    0.18960000
opls_144-341    H    0.79634996    0.97617010    0.54953984    0.13070000
opls_144-342    H    0.76545992    0.00477996    0.54203984    0.13070000
opls_140-343    H    0.69897996    0.83537984    0.98208984    0.10540000
opls_140-344    H    0.75290999    0.83694986    0.99967969    0.10780000
opls_140-345    H    0.72157984    0.81582999    0.88113984    0.10660000
opls_140-346    H    0.68965000    0.89368994    0.84812031    0.10540000
opls_140-347    H    0.73745016    0.93609014    0.77408984    0.11250000
opls_140-348    H    0.71218002    0.87568004    0.74367969    0.11180000
opls_146-349    H    0.94290988    0.90066989    0.55731016    0.18920000
opls_146-350    H    0.91278997    0.81870014    0.53260000    0.18920000
opls_146-351    H    0.93398997    0.80508984    0.85297969    0.18930000
opls_146-352    H    0.96594014    0.88718999    0.87585000    0.18920000
opls_146-353    H    0.84794008    0.74169004    0.57257969    0.18920000
opls_146-354    H    0.81765999    0.65999996    0.55565000    0.18920000
opls_146-355    H    0.92306011    0.66905997    0.75797969    0.18920000
opls_146-356    H    0.95391992    0.75088010    0.77310000    0.18920000
opls_146-357    H    0.61542991    0.24918982    0.56747969    0.18920000
opls_146-358    H    0.56877017    0.33912012    0.69418984    0.18920000
opls_146-359    H    0.55030000    0.24360999    0.45376016    0.18920000
opls_144-360    H    0.40696004    0.27143992    0.69467031    0.09210000
opls_146-361    H    0.48650003    0.30531008    0.70842969    0.18920000
opls_146-362    H    0.46738004    0.20895989    0.47011016    0.18920000
opls_146-363    H    0.95285000    0.07898005    0.38282969    0.18930000
opls_146-364    H    0.92173993    0.12582984    0.32052031    0.18920000
opls_146-365    H    0.89060985    0.05429994    0.03191016    0.18920000
opls_146-366    H    0.92417996    0.01010983    0.09205000    0.18930000
opls_140-367    H    0.97245004    0.18519012    0.05486016    0.11560000
opls_140-368    H    0.94263003    0.13627004    0.97315000    0.11200000
opls_140-369    H    0.92709998    0.21998985    0.96711016    0.08390000
opls_140-370    H    0.90168001    0.17066005    0.88311016    0.08430000
opls_140-371    H    0.00551991    0.24357993    0.90247031    0.09020000
opls_140-372    H    0.98436991    0.19151003    0.82868984    0.08460000
opls_140-373    H    0.95567990    0.26490990    0.78840000    0.08460000
opls_140-374    H    0.94163993    0.21558989    0.71088984    0.09930000
opls_140-375    H    0.03829011    0.30146003    0.74322969    0.08460000
opls_140-376    H    0.00395011    0.28722991    0.62977031    0.08720000
opls_140-377    H    0.06900996    0.27209016    0.60492969    0.07790000
opls_140-378    H    0.05300004    0.23658985    0.71603984    0.08170000
opls_144-379    H    0.99992994    0.17472999    0.61692031    0.18970000
opls_144-380    H    0.97617009    0.17982004    0.45046016    0.13070000
opls_144-381    H    0.00477997    0.23932016    0.45796016    0.13070000
opls_140-382    H    0.83538018    0.13640009    0.01791016    0.10540000
opls_140-383    H    0.83695008    0.08404003    0.00032031    0.10780000
opls_140-384    H    0.81583004    0.09424985    0.11886016    0.10670000
opls_140-385    H    0.89369004    0.20404009    0.15187969    0.10540000
opls_140-386    H    0.93608988    0.19863995    0.22591016    0.11250000
opls_140-387    H    0.87568010    0.16350007    0.25632031    0.11180000
opls_146-388    H    0.90066985    0.95775992    0.44268984    0.18920000
opls_146-389    H    0.81870004    0.90590991    0.46740000    0.18920000
opls_146-390    H    0.80509014    0.87110005    0.14702031    0.18930000
opls_146-391    H    0.88718993    0.92124999    0.12415000    0.18920000
opls_146-392    H    0.74169005    0.89375007    0.42742031    0.18920000
opls_146-393    H    0.65999978    0.84233986    0.44435000    0.18920000
opls_146-394    H    0.66906002    0.74600015    0.24202031    0.18920000
opls_146-395    H    0.75087999    0.79696009    0.22690000    0.18920000
opls_146-396    H    0.75080999    0.36624003    0.56747969    0.18920000
opls_146-397    H    0.66088016    0.22965011    0.69418984    0.18920000
opls_146-398    H    0.75639007    0.30668992    0.45376016    0.18920000
opls_144-399    H    0.72855996    0.13552017    0.69467031    0.09210000
opls_146-400    H    0.69469011    0.18119009    0.70842969    0.18920000
opls_146-401    H    0.79103989    0.25842008    0.47011016    0.18930000
opls_146-402    H    0.92102000    0.87386986    0.38282969    0.18930000
opls_146-403    H    0.87416992    0.79590992    0.32052031    0.18920000
opls_146-404    H    0.94570001    0.83631010    0.03191016    0.18920000
opls_146-405    H    0.98989002    0.91407008    0.09205000    0.18920000
opls_140-406    H    0.81481013    0.78725998    0.05486016    0.11560000
opls_140-407    H    0.86373006    0.80635991    0.97315000    0.11190000
opls_140-408    H    0.78000997    0.70710985    0.96711016    0.08390000
opls_140-409    H    0.82933976    0.73101981    0.88311016    0.08420000
opls_140-410    H    0.75641995    0.76194012    0.90247031    0.09020000
opls_140-411    H    0.80848999    0.79286008    0.82868984    0.08460000
opls_140-412    H    0.73509009    0.69076995    0.78840000    0.08460000
opls_140-413    H    0.78441011    0.72605002    0.71088984    0.09930000
opls_140-414    H    0.69854005    0.73683002    0.74322969    0.08460000
opls_140-415    H    0.71276999    0.71672012    0.62977031    0.08720000
opls_140-416    H    0.72790984    0.79691989    0.60492969    0.07790000
opls_140-417    H    0.76340995    0.81640996    0.71603984    0.08170000
opls_144-418    H    0.82527004    0.82520009    0.61692031    0.18960000
opls_144-419    H    0.82018017    0.79635006    0.45046016    0.13070000
opls_144-420    H    0.76067995    0.76545981    0.45796016    0.13070000
opls_140-421    H    0.86359995    0.69898010    0.01791016    0.10540000
opls_140-422    H    0.91595991    0.75290982    0.00032031    0.10780000
opls_140-423    H    0.90575011    0.72158014    0.11886016    0.10660000
opls_140-424    H    0.79595996    0.68964986    0.15187969    0.10540000
opls_140-425    H    0.80135980    0.73744984    0.22591016    0.11250000
opls_140-426    H    0.83649992    0.71217998    0.25632031    0.11190000
opls_146-427    H    0.04224003    0.94290997    0.44268984    0.18920000
opls_146-428    H    0.09409006    0.91278987    0.46740000    0.18920000
opls_146-429    H    0.12889983    0.93398980    0.14702031    0.18930000
opls_146-430    H    0.07874990    0.96594001    0.12415000    0.18920000
opls_146-431    H    0.10625003    0.84793996    0.42742031    0.18920000
opls_146-432    H    0.15765990    0.81766010    0.44435000    0.18920000
opls_146-433    H    0.25399979    0.92305982    0.24202031    0.18920000
opls_146-434    H    0.20303993    0.95392000    0.22690000    0.18920000
opls_146-435    H    0.63376010    0.38457015    0.56747969    0.18920000
opls_146-436    H    0.77035015    0.43123012    0.69418984    0.18930000
opls_146-437    H    0.69330993    0.44970009    0.45376016    0.18920000
opls_144-438    H    0.86447999    0.59303991    0.69467031    0.09210000
opls_146-439    H    0.81880986    0.51349982    0.70842969    0.18920000
opls_146-440    H    0.74158007    0.53262003    0.47011016    0.18920000
opls_146-441    H    0.12613000    0.04715010    0.38282969    0.18930000
opls_146-442    H    0.20408998    0.07825989    0.32052031    0.18920000
opls_146-443    H    0.16368983    0.10938996    0.03191016    0.18920000
opls_146-444    H    0.08593003    0.07582009    0.09205000    0.18920000
opls_140-445    H    0.21273983    0.02754990    0.05486016    0.11560000
opls_140-446    H    0.19363992    0.05737005    0.97315000    0.11190000
opls_140-447    H    0.29288988    0.07289995    0.96711016    0.08390000
opls_140-448    H    0.26897993    0.09832014    0.88311016    0.08420000
opls_140-449    H    0.23805984    0.99447995    0.90247031    0.09020000
opls_140-450    H    0.20713980    0.01562988    0.82868984    0.08460000
opls_140-451    H    0.30923001    0.04432015    0.78840000    0.08460000
opls_140-452    H    0.27394995    0.05836009    0.71088984    0.09930000
opls_140-453    H    0.26316984    0.96170995    0.74322969    0.08460000
opls_140-454    H    0.28327990    0.99604997    0.62977031    0.08720000
opls_140-455    H    0.20307990    0.93098995    0.60492969    0.07790000
opls_140-456    H    0.18358984    0.94699984    0.71603984    0.08170000
opls_144-457    H    0.17480002    0.00006992    0.61692031    0.18970000
opls_144-458    H    0.20365004    0.02382990    0.45046016    0.13070000
opls_144-459    H    0.23454008    0.99522004    0.45796016    0.13070000
opls_140-460    H    0.30102004    0.16462016    0.01791016    0.10540000
opls_140-461    H    0.24709001    0.16305014    0.00032031    0.10780000
opls_140-462    H    0.27842016    0.18417001    0.11886016    0.10660000
opls_140-463    H    0.31035000    0.10631006    0.15187969    0.10540000
opls_140-464    H    0.26254984    0.06390986    0.22591016    0.11250000
opls_140-465    H    0.28781998    0.12431996    0.25632031    0.11180000
opls_146-466    H    0.05709012    0.09933011    0.44268984    0.18920000
opls_146-467    H    0.08721003    0.18129986    0.46740000    0.18920000
opls_146-468    H    0.06601003    0.19491016    0.14702031    0.18950000
opls_146-469    H    0.03405986    0.11281001    0.12415000    0.18920000
opls_146-470    H    0.15205992    0.25830996    0.42742031    0.18920000
opls_146-471    H    0.18234001    0.34000004    0.44435000    0.18920000
opls_146-472    H    0.07693989    0.33094003    0.24202031    0.18920000
opls_146-473    H    0.04608008    0.24911990    0.22690000    0.18920000
MOF2_Si3-474    Si    0.10336009    0.86278012    0.89116016    0.58740000
MOF2_Si3-475    Si    0.13722011    0.24058008    0.89116016    0.58730000
MOF2_Si3-476    Si    0.75941981    0.89663980    0.89116016    0.58730000
MOF2_Si3-477    Si    0.89663991    0.13721988    0.10883984    0.58740000
MOF2_Si3-478    Si    0.86277989    0.75941992    0.10883984    0.58740000
MOF2_Si3-479    Si    0.24058002    0.10335985    0.10883984    0.58730000
