#======================================================================
# Crystal Data Generated By AuToFF
#----------------------------------------------------------------------

data_AuToFF_phase_1

_cell_length_a                         30.8100
_cell_length_b                         59.7200
_cell_length_c                         25.0100
_cell_angle_alpha                      90.00
_cell_angle_beta                       90.00
_cell_angle_gamma                      90.00
_symmetry_space_group_name_H-M_alt     'P 1'
_symmetry_space_group_IT_number        1

loop_
_space_group_symop_operation_xyz
   'x, y, z'

loop_
   _atom_site_label
   _atom_site_type_symbol
   _atom_site_fract_x
   _atom_site_fract_y
   _atom_site_fract_z
   _atom_site_charge
opls_700-0    C    0.69143006    0.61338999    0.71815994    0.06760000
opls_145-1    C    0.71604998    0.59476993    0.70277009    -0.09260000
opls_145-2    C    0.69766991    0.57781999    0.67174010    -0.07430000
opls_700-3    C    0.65423012    0.57920998    0.65466014    0.08420000
opls_145-4    C    0.62997014    0.59830007    0.66877009    -0.07620000
opls_145-5    C    0.64832003    0.61516008    0.70040984    -0.07420000
opls_700-6    C    0.63398994    0.56020998    0.62501999    0.08350000
opls_145-7    C    0.65885005    0.54661001    0.59098001    -0.07410000
opls_145-8    C    0.64123012    0.52726005    0.56841983    -0.13310000
opls_916-9    C    0.59788997    0.52105007    0.57785006    0.22400000
opls_145-10    C    0.57233009    0.53558004    0.60906997    -0.13300000
opls_145-11    C    0.59017007    0.55462994    0.63291004    -0.07430000
opls_142-12    C    0.71070010    0.62990003    0.75508996    0.01650000
opls_145-13    C    0.70176014    0.66112994    0.81673011    0.23020000
opls_145-14    C    0.73682993    0.65623995    0.85094002    -0.13340000
opls_145-15    C    0.74703992    0.67056999    0.89325990    -0.07410000
opls_700-16    C    0.72249984    0.68995998    0.90234986    0.08570000
opls_145-17    C    0.68758001    0.69488999    0.86827989    -0.07430000
opls_145-18    C    0.67734015    0.68055007    0.82587005    -0.13330000
opls_700-19    C    0.73007011    0.70337994    0.04882007    0.04070000
opls_700-20    C    0.73971016    0.72652997    0.04922991    0.03970000
opls_145-21    C    0.74523986    0.73855995    0.09711995    -0.07630000
opls_700-22    C    0.19143006    0.11338999    0.71815994    0.06760000
opls_145-23    C    0.21604998    0.09476993    0.70277009    -0.09260000
opls_145-24    C    0.19766991    0.07781999    0.67174010    -0.07430000
opls_700-25    C    0.15423012    0.07920998    0.65466014    0.08420000
opls_145-26    C    0.12997014    0.09830007    0.66877009    -0.07620000
opls_145-27    C    0.14832003    0.11516008    0.70040984    -0.07420000
opls_700-28    C    0.13398994    0.06020998    0.62501999    0.08350000
opls_145-29    C    0.15885005    0.04661001    0.59098001    -0.07410000
opls_145-30    C    0.14123012    0.02726005    0.56841983    -0.13310000
opls_916-31    C    0.09788997    0.02105007    0.57785006    0.22390000
opls_145-32    C    0.07233009    0.03558004    0.60906997    -0.13300000
opls_145-33    C    0.09017007    0.05462994    0.63291004    -0.07430000
opls_142-34    C    0.21070010    0.12990003    0.75508996    0.01650000
opls_145-35    C    0.20176014    0.16112994    0.81673011    0.23020000
opls_145-36    C    0.23682993    0.15623995    0.85094002    -0.13340000
opls_145-37    C    0.24703992    0.17056999    0.89325990    -0.07400000
opls_700-38    C    0.22249984    0.18995998    0.90234986    0.08570000
opls_145-39    C    0.18758001    0.19488999    0.86827989    -0.07430000
opls_145-40    C    0.17734015    0.18055007    0.82587005    -0.13330000
opls_700-41    C    0.23007011    0.20337994    0.04882007    0.04070000
opls_700-42    C    0.23971016    0.22652997    0.04922991    0.03970000
opls_145-43    C    0.24523986    0.23855995    0.09711995    -0.07630000
opls_700-44    C    0.30856994    0.38661001    0.71815994    0.06760000
opls_145-45    C    0.28395002    0.40523007    0.70277009    -0.09260000
opls_145-46    C    0.30233009    0.42218001    0.67174010    -0.07430000
opls_700-47    C    0.34576988    0.42079002    0.65466014    0.08420000
opls_145-48    C    0.37002986    0.40169993    0.66877009    -0.07610000
opls_145-49    C    0.35167997    0.38483992    0.70040984    -0.07420000
opls_700-50    C    0.36601006    0.43979002    0.62501999    0.08350000
opls_145-51    C    0.34114995    0.45338999    0.59098001    -0.07410000
opls_145-52    C    0.35876988    0.47273995    0.56841983    -0.13310000
opls_916-53    C    0.40211003    0.47894993    0.57785006    0.22400000
opls_145-54    C    0.42766991    0.46441996    0.60906997    -0.13310000
opls_145-55    C    0.40982993    0.44537006    0.63291004    -0.07420000
opls_142-56    C    0.28929990    0.37009997    0.75508996    0.01650000
opls_145-57    C    0.29823986    0.33887006    0.81673011    0.23020000
opls_145-58    C    0.26317007    0.34376005    0.85094002    -0.13340000
opls_145-59    C    0.25296008    0.32943001    0.89325990    -0.07400000
opls_700-60    C    0.27750016    0.31004002    0.90234986    0.08570000
opls_145-61    C    0.31241999    0.30511001    0.86827989    -0.07430000
opls_145-62    C    0.32265985    0.31944993    0.82587005    -0.13330000
opls_700-63    C    0.26992989    0.29662006    0.04882007    0.04070000
opls_700-64    C    0.26028984    0.27347003    0.04922991    0.03980000
opls_145-65    C    0.25476014    0.26144005    0.09711995    -0.07630000
opls_700-66    C    0.80856994    0.88661001    0.71815994    0.06760000
opls_145-67    C    0.78395002    0.90523007    0.70277009    -0.09260000
opls_145-68    C    0.80233009    0.92218001    0.67174010    -0.07430000
opls_700-69    C    0.84576988    0.92079002    0.65466014    0.08420000
opls_145-70    C    0.87002986    0.90169993    0.66877009    -0.07620000
opls_145-71    C    0.85167997    0.88483992    0.70040984    -0.07410000
opls_700-72    C    0.86601006    0.93979002    0.62501999    0.08350000
opls_145-73    C    0.84114995    0.95338999    0.59098001    -0.07410000
opls_145-74    C    0.85876988    0.97273995    0.56841983    -0.13310000
opls_916-75    C    0.90211003    0.97894993    0.57785006    0.22400000
opls_145-76    C    0.92766991    0.96441996    0.60906997    -0.13310000
opls_145-77    C    0.90982993    0.94537006    0.63291004    -0.07430000
opls_142-78    C    0.78929990    0.87009997    0.75508996    0.01660000
opls_145-79    C    0.79823986    0.83887006    0.81673011    0.23020000
opls_145-80    C    0.76317007    0.84376005    0.85094002    -0.13340000
opls_145-81    C    0.75296008    0.82943001    0.89325990    -0.07410000
opls_700-82    C    0.77750016    0.81004002    0.90234986    0.08570000
opls_145-83    C    0.81241999    0.80511001    0.86827989    -0.07430000
opls_145-84    C    0.82265985    0.81944993    0.82587005    -0.13330000
opls_700-85    C    0.76992989    0.79662006    0.04882007    0.04070000
opls_700-86    C    0.76028984    0.77347003    0.04922991    0.03980000
opls_145-87    C    0.75476014    0.76144005    0.09711995    -0.07630000
opls_700-88    C    0.30856994    0.61338999    0.28184006    0.06770000
opls_145-89    C    0.28395002    0.59476993    0.29722991    -0.09260000
opls_145-90    C    0.30233009    0.57781999    0.32825990    -0.07430000
opls_700-91    C    0.34576988    0.57920998    0.34533986    0.08420000
opls_145-92    C    0.37002986    0.59830007    0.33122991    -0.07620000
opls_145-93    C    0.35167997    0.61516008    0.29959016    -0.07420000
opls_700-94    C    0.36601006    0.56020998    0.37498001    0.08350000
opls_145-95    C    0.34114995    0.54661001    0.40901999    -0.07410000
opls_145-96    C    0.35876988    0.52726005    0.43158017    -0.13310000
opls_916-97    C    0.40211003    0.52105007    0.42214994    0.22390000
opls_145-98    C    0.42766991    0.53558004    0.39093003    -0.13310000
opls_145-99    C    0.40982993    0.55462994    0.36708996    -0.07430000
opls_142-100    C    0.28929990    0.62990003    0.24491004    0.01650000
opls_145-101    C    0.29823986    0.66112994    0.18326989    0.23020000
opls_145-102    C    0.26317007    0.65623995    0.14905998    -0.13340000
opls_145-103    C    0.25296008    0.67056999    0.10674010    -0.07410000
opls_700-104    C    0.27750016    0.68995998    0.09765014    0.08570000
opls_145-105    C    0.31241999    0.69488999    0.13172011    -0.07430000
opls_145-106    C    0.32265985    0.68055007    0.17412995    -0.13320000
opls_700-107    C    0.26992989    0.70337994    0.95117993    0.04070000
opls_700-108    C    0.26028984    0.72652997    0.95077009    0.03970000
opls_145-109    C    0.25476014    0.73855995    0.90288005    -0.07630000
opls_700-110    C    0.80856994    0.11338999    0.28184006    0.06760000
opls_145-111    C    0.78395002    0.09476993    0.29722991    -0.09260000
opls_145-112    C    0.80233009    0.07781999    0.32825990    -0.07430000
opls_700-113    C    0.84576988    0.07920998    0.34533986    0.08420000
opls_145-114    C    0.87002986    0.09830007    0.33122991    -0.07620000
opls_145-115    C    0.85167997    0.11516008    0.29959016    -0.07410000
opls_700-116    C    0.86601006    0.06020998    0.37498001    0.08360000
opls_145-117    C    0.84114995    0.04661001    0.40901999    -0.07410000
opls_145-118    C    0.85876988    0.02726005    0.43158017    -0.13310000
opls_916-119    C    0.90211003    0.02105007    0.42214994    0.22390000
opls_145-120    C    0.92766991    0.03558004    0.39093003    -0.13310000
opls_145-121    C    0.90982993    0.05462994    0.36708996    -0.07430000
opls_142-122    C    0.78929990    0.12990003    0.24491004    0.01650000
opls_145-123    C    0.79823986    0.16112994    0.18326989    0.23020000
opls_145-124    C    0.76317007    0.15623995    0.14905998    -0.13340000
opls_145-125    C    0.75296008    0.17056999    0.10674010    -0.07410000
opls_700-126    C    0.77750016    0.18995998    0.09765014    0.08570000
opls_145-127    C    0.81241999    0.19488999    0.13172011    -0.07430000
opls_145-128    C    0.82265985    0.18055007    0.17412995    -0.13330000
opls_700-129    C    0.76992989    0.20337994    0.95117993    0.04070000
opls_700-130    C    0.76028984    0.22652997    0.95077009    0.03970000
opls_145-131    C    0.75476014    0.23855995    0.90288005    -0.07630000
opls_700-132    C    0.69143006    0.38661001    0.28184006    0.06760000
opls_145-133    C    0.71604998    0.40523007    0.29722991    -0.09260000
opls_145-134    C    0.69766991    0.42218001    0.32825990    -0.07420000
opls_700-135    C    0.65423012    0.42079002    0.34533986    0.08420000
opls_145-136    C    0.62997014    0.40169993    0.33122991    -0.07620000
opls_145-137    C    0.64832003    0.38483992    0.29959016    -0.07420000
opls_700-138    C    0.63398994    0.43979002    0.37498001    0.08350000
opls_145-139    C    0.65885005    0.45338999    0.40901999    -0.07410000
opls_145-140    C    0.64123012    0.47273995    0.43158017    -0.13300000
opls_916-141    C    0.59788997    0.47894993    0.42214994    0.22390000
opls_145-142    C    0.57233009    0.46441996    0.39093003    -0.13310000
opls_145-143    C    0.59017007    0.44537006    0.36708996    -0.07430000
opls_142-144    C    0.71070010    0.37009997    0.24491004    0.01650000
opls_145-145    C    0.70176014    0.33887006    0.18326989    0.23030000
opls_145-146    C    0.73682993    0.34376005    0.14905998    -0.13340000
opls_145-147    C    0.74703992    0.32943001    0.10674010    -0.07410000
opls_700-148    C    0.72249984    0.31004002    0.09765014    0.08570000
opls_145-149    C    0.68758001    0.30511001    0.13172011    -0.07430000
opls_145-150    C    0.67734015    0.31944993    0.17412995    -0.13330000
opls_700-151    C    0.73007011    0.29662006    0.95117993    0.04070000
opls_700-152    C    0.73971016    0.27347003    0.95077009    0.03970000
opls_145-153    C    0.74523986    0.26144005    0.90288005    -0.07630000
opls_700-154    C    0.19143006    0.88661001    0.28184006    0.06760000
opls_145-155    C    0.21604998    0.90523007    0.29722991    -0.09260000
opls_145-156    C    0.19766991    0.92218001    0.32825990    -0.07430000
opls_700-157    C    0.15423012    0.92079002    0.34533986    0.08420000
opls_145-158    C    0.12997014    0.90169993    0.33122991    -0.07620000
opls_145-159    C    0.14832003    0.88483992    0.29959016    -0.07420000
opls_700-160    C    0.13398994    0.93979002    0.37498001    0.08350000
opls_145-161    C    0.15885005    0.95338999    0.40901999    -0.07410000
opls_145-162    C    0.14123012    0.97273995    0.43158017    -0.13310000
opls_916-163    C    0.09788997    0.97894993    0.42214994    0.22390000
opls_145-164    C    0.07233009    0.96441996    0.39093003    -0.13310000
opls_145-165    C    0.09017007    0.94537006    0.36708996    -0.07430000
opls_142-166    C    0.21070010    0.87009997    0.24491004    0.01650000
opls_145-167    C    0.20176014    0.83887006    0.18326989    0.23020000
opls_145-168    C    0.23682993    0.84376005    0.14905998    -0.13340000
opls_145-169    C    0.24703992    0.82943001    0.10674010    -0.07410000
opls_700-170    C    0.22249984    0.81004002    0.09765014    0.08570000
opls_145-171    C    0.18758001    0.80511001    0.13172011    -0.07430000
opls_145-172    C    0.17734015    0.81944993    0.17412995    -0.13320000
opls_700-173    C    0.23007011    0.79662006    0.95117993    0.04070000
opls_700-174    C    0.23971016    0.77347003    0.95077009    0.03970000
opls_145-175    C    0.24523986    0.76144005    0.90288005    -0.07630000
opls_700-176    C    0.30856994    0.38661001    0.28184006    0.06760000
opls_145-177    C    0.28395002    0.40523007    0.29722991    -0.09260000
opls_145-178    C    0.30233009    0.42218001    0.32825990    -0.07430000
opls_700-179    C    0.34576988    0.42079002    0.34533986    0.08420000
opls_145-180    C    0.37002986    0.40169993    0.33122991    -0.07620000
opls_145-181    C    0.35167997    0.38483992    0.29959016    -0.07420000
opls_700-182    C    0.36601006    0.43979002    0.37498001    0.08350000
opls_145-183    C    0.34114995    0.45338999    0.40901999    -0.07410000
opls_145-184    C    0.35876988    0.47273995    0.43158017    -0.13310000
opls_916-185    C    0.40211003    0.47894993    0.42214994    0.22390000
opls_145-186    C    0.42766991    0.46441996    0.39093003    -0.13310000
opls_145-187    C    0.40982993    0.44537006    0.36708996    -0.07430000
opls_142-188    C    0.28929990    0.37009997    0.24491004    0.01650000
opls_145-189    C    0.29823986    0.33887006    0.18326989    0.23020000
opls_145-190    C    0.26317007    0.34376005    0.14905998    -0.13340000
opls_145-191    C    0.25296008    0.32943001    0.10674010    -0.07410000
opls_700-192    C    0.27750016    0.31004002    0.09765014    0.08570000
opls_145-193    C    0.31241999    0.30511001    0.13172011    -0.07430000
opls_145-194    C    0.32265985    0.31944993    0.17412995    -0.13330000
opls_700-195    C    0.26992989    0.29662006    0.95117993    0.04070000
opls_700-196    C    0.26028984    0.27347003    0.95077009    0.03980000
opls_145-197    C    0.25476014    0.26144005    0.90288005    -0.07630000
opls_700-198    C    0.80856994    0.88661001    0.28184006    0.06760000
opls_145-199    C    0.78395002    0.90523007    0.29722991    -0.09250000
opls_145-200    C    0.80233009    0.92218001    0.32825990    -0.07430000
opls_700-201    C    0.84576988    0.92079002    0.34533986    0.08420000
opls_145-202    C    0.87002986    0.90169993    0.33122991    -0.07620000
opls_145-203    C    0.85167997    0.88483992    0.29959016    -0.07410000
opls_700-204    C    0.86601006    0.93979002    0.37498001    0.08350000
opls_145-205    C    0.84114995    0.95338999    0.40901999    -0.07410000
opls_145-206    C    0.85876988    0.97273995    0.43158017    -0.13310000
opls_916-207    C    0.90211003    0.97894993    0.42214994    0.22390000
opls_145-208    C    0.92766991    0.96441996    0.39093003    -0.13310000
opls_145-209    C    0.90982993    0.94537006    0.36708996    -0.07420000
opls_142-210    C    0.78929990    0.87009997    0.24491004    0.01650000
opls_145-211    C    0.79823986    0.83887006    0.18326989    0.23020000
opls_145-212    C    0.76317007    0.84376005    0.14905998    -0.13340000
opls_145-213    C    0.75296008    0.82943001    0.10674010    -0.07410000
opls_700-214    C    0.77750016    0.81004002    0.09765014    0.08570000
opls_145-215    C    0.81241999    0.80511001    0.13172011    -0.07430000
opls_145-216    C    0.82265985    0.81944993    0.17412995    -0.13330000
opls_700-217    C    0.76992989    0.79662006    0.95117993    0.04070000
opls_700-218    C    0.76028984    0.77347003    0.95077009    0.03970000
opls_145-219    C    0.75476014    0.76144005    0.90288005    -0.07630000
opls_700-220    C    0.69143006    0.61338999    0.28184006    0.06760000
opls_145-221    C    0.71604998    0.59476993    0.29722991    -0.09260000
opls_145-222    C    0.69766991    0.57781999    0.32825990    -0.07430000
opls_700-223    C    0.65423012    0.57920998    0.34533986    0.08420000
opls_145-224    C    0.62997014    0.59830007    0.33122991    -0.07620000
opls_145-225    C    0.64832003    0.61516008    0.29959016    -0.07420000
opls_700-226    C    0.63398994    0.56020998    0.37498001    0.08350000
opls_145-227    C    0.65885005    0.54661001    0.40901999    -0.07410000
opls_145-228    C    0.64123012    0.52726005    0.43158017    -0.13300000
opls_916-229    C    0.59788997    0.52105007    0.42214994    0.22390000
opls_145-230    C    0.57233009    0.53558004    0.39093003    -0.13310000
opls_145-231    C    0.59017007    0.55462994    0.36708996    -0.07420000
opls_142-232    C    0.71070010    0.62990003    0.24491004    0.01650000
opls_145-233    C    0.70176014    0.66112994    0.18326989    0.23020000
opls_145-234    C    0.73682993    0.65623995    0.14905998    -0.13340000
opls_145-235    C    0.74703992    0.67056999    0.10674010    -0.07410000
opls_700-236    C    0.72249984    0.68995998    0.09765014    0.08570000
opls_145-237    C    0.68758001    0.69488999    0.13172011    -0.07430000
opls_145-238    C    0.67734015    0.68055007    0.17412995    -0.13310000
opls_700-239    C    0.73007011    0.70337994    0.95117993    0.04080000
opls_700-240    C    0.73971016    0.72652997    0.95077009    0.03970000
opls_145-241    C    0.74523986    0.73855995    0.90288005    -0.07630000
opls_700-242    C    0.19143006    0.11338999    0.28184006    0.06760000
opls_145-243    C    0.21604998    0.09476993    0.29722991    -0.09260000
opls_145-244    C    0.19766991    0.07781999    0.32825990    -0.07430000
opls_700-245    C    0.15423012    0.07920998    0.34533986    0.08420000
opls_145-246    C    0.12997014    0.09830007    0.33122991    -0.07620000
opls_145-247    C    0.14832003    0.11516008    0.29959016    -0.07420000
opls_700-248    C    0.13398994    0.06020998    0.37498001    0.08350000
opls_145-249    C    0.15885005    0.04661001    0.40901999    -0.07410000
opls_145-250    C    0.14123012    0.02726005    0.43158017    -0.13310000
opls_916-251    C    0.09788997    0.02105007    0.42214994    0.22400000
opls_145-252    C    0.07233009    0.03558004    0.39093003    -0.13300000
opls_145-253    C    0.09017007    0.05462994    0.36708996    -0.07430000
opls_142-254    C    0.21070010    0.12990003    0.24491004    0.01650000
opls_145-255    C    0.20176014    0.16112994    0.18326989    0.23030000
opls_145-256    C    0.23682993    0.15623995    0.14905998    -0.13340000
opls_145-257    C    0.24703992    0.17056999    0.10674010    -0.07410000
opls_700-258    C    0.22249984    0.18995998    0.09765014    0.08570000
opls_145-259    C    0.18758001    0.19488999    0.13172011    -0.07430000
opls_145-260    C    0.17734015    0.18055007    0.17412995    -0.13330000
opls_700-261    C    0.23007011    0.20337994    0.95117993    0.04070000
opls_700-262    C    0.23971016    0.22652997    0.95077009    0.03970000
opls_145-263    C    0.24523986    0.23855995    0.90288005    -0.07630000
opls_700-264    C    0.69143006    0.38661001    0.71815994    0.06760000
opls_145-265    C    0.71604998    0.40523007    0.70277009    -0.09260000
opls_145-266    C    0.69766991    0.42218001    0.67174010    -0.07430000
opls_700-267    C    0.65423012    0.42079002    0.65466014    0.08420000
opls_145-268    C    0.62997014    0.40169993    0.66877009    -0.07620000
opls_145-269    C    0.64832003    0.38483992    0.70040984    -0.07420000
opls_700-270    C    0.63398994    0.43979002    0.62501999    0.08350000
opls_145-271    C    0.65885005    0.45338999    0.59098001    -0.07410000
opls_145-272    C    0.64123012    0.47273995    0.56841983    -0.13310000
opls_916-273    C    0.59788997    0.47894993    0.57785006    0.22390000
opls_145-274    C    0.57233009    0.46441996    0.60906997    -0.13310000
opls_145-275    C    0.59017007    0.44537006    0.63291004    -0.07430000
opls_142-276    C    0.71070010    0.37009997    0.75508996    0.01650000
opls_145-277    C    0.70176014    0.33887006    0.81673011    0.23020000
opls_145-278    C    0.73682993    0.34376005    0.85094002    -0.13340000
opls_145-279    C    0.74703992    0.32943001    0.89325990    -0.07410000
opls_700-280    C    0.72249984    0.31004002    0.90234986    0.08570000
opls_145-281    C    0.68758001    0.30511001    0.86827989    -0.07430000
opls_145-282    C    0.67734015    0.31944993    0.82587005    -0.13330000
opls_700-283    C    0.73007011    0.29662006    0.04882007    0.04070000
opls_700-284    C    0.73971016    0.27347003    0.04922991    0.03970000
opls_145-285    C    0.74523986    0.26144005    0.09711995    -0.07630000
opls_700-286    C    0.19143006    0.88661001    0.71815994    0.06770000
opls_145-287    C    0.21604998    0.90523007    0.70277009    -0.09260000
opls_145-288    C    0.19766991    0.92218001    0.67174010    -0.07430000
opls_700-289    C    0.15423012    0.92079002    0.65466014    0.08420000
opls_145-290    C    0.12997014    0.90169993    0.66877009    -0.07610000
opls_145-291    C    0.14832003    0.88483992    0.70040984    -0.07420000
opls_700-292    C    0.13398994    0.93979002    0.62501999    0.08350000
opls_145-293    C    0.15885005    0.95338999    0.59098001    -0.07410000
opls_145-294    C    0.14123012    0.97273995    0.56841983    -0.13310000
opls_916-295    C    0.09788997    0.97894993    0.57785006    0.22390000
opls_145-296    C    0.07233009    0.96441996    0.60906997    -0.13310000
opls_145-297    C    0.09017007    0.94537006    0.63291004    -0.07430000
opls_142-298    C    0.21070010    0.87009997    0.75508996    0.01650000
opls_145-299    C    0.20176014    0.83887006    0.81673011    0.23040000
opls_145-300    C    0.23682993    0.84376005    0.85094002    -0.13340000
opls_145-301    C    0.24703992    0.82943001    0.89325990    -0.07410000
opls_700-302    C    0.22249984    0.81004002    0.90234986    0.08570000
opls_145-303    C    0.18758001    0.80511001    0.86827989    -0.07430000
opls_145-304    C    0.17734015    0.81944993    0.82587005    -0.13330000
opls_700-305    C    0.23007011    0.79662006    0.04882007    0.04070000
opls_700-306    C    0.23971016    0.77347003    0.04922991    0.03970000
opls_145-307    C    0.24523986    0.76144005    0.09711995    -0.07630000
opls_700-308    C    0.30856994    0.61338999    0.71815994    0.06760000
opls_145-309    C    0.28395002    0.59476993    0.70277009    -0.09260000
opls_145-310    C    0.30233009    0.57781999    0.67174010    -0.07430000
opls_700-311    C    0.34576988    0.57920998    0.65466014    0.08420000
opls_145-312    C    0.37002986    0.59830007    0.66877009    -0.07600000
opls_145-313    C    0.35167997    0.61516008    0.70040984    -0.07410000
opls_700-314    C    0.36601006    0.56020998    0.62501999    0.08350000
opls_145-315    C    0.34114995    0.54661001    0.59098001    -0.07410000
opls_145-316    C    0.35876988    0.52726005    0.56841983    -0.13310000
opls_916-317    C    0.40211003    0.52105007    0.57785006    0.22390000
opls_145-318    C    0.42766991    0.53558004    0.60906997    -0.13310000
opls_145-319    C    0.40982993    0.55462994    0.63291004    -0.07430000
opls_142-320    C    0.28929990    0.62990003    0.75508996    0.01650000
opls_145-321    C    0.29823986    0.66112994    0.81673011    0.23020000
opls_145-322    C    0.26317007    0.65623995    0.85094002    -0.13340000
opls_145-323    C    0.25296008    0.67056999    0.89325990    -0.07410000
opls_700-324    C    0.27750016    0.68995998    0.90234986    0.08570000
opls_145-325    C    0.31241999    0.69488999    0.86827989    -0.07430000
opls_145-326    C    0.32265985    0.68055007    0.82587005    -0.13330000
opls_700-327    C    0.26992989    0.70337994    0.04882007    0.04070000
opls_700-328    C    0.26028984    0.72652997    0.04922991    0.03970000
opls_145-329    C    0.25476014    0.73855995    0.09711995    -0.07630000
opls_700-330    C    0.80856994    0.11338999    0.71815994    0.06770000
opls_145-331    C    0.78395002    0.09476993    0.70277009    -0.09260000
opls_145-332    C    0.80233009    0.07781999    0.67174010    -0.07430000
opls_700-333    C    0.84576988    0.07920998    0.65466014    0.08420000
opls_145-334    C    0.87002986    0.09830007    0.66877009    -0.07620000
opls_145-335    C    0.85167997    0.11516008    0.70040984    -0.07420000
opls_700-336    C    0.86601006    0.06020998    0.62501999    0.08360000
opls_145-337    C    0.84114995    0.04661001    0.59098001    -0.07410000
opls_145-338    C    0.85876988    0.02726005    0.56841983    -0.13310000
opls_916-339    C    0.90211003    0.02105007    0.57785006    0.22410000
opls_145-340    C    0.92766991    0.03558004    0.60906997    -0.13310000
opls_145-341    C    0.90982993    0.05462994    0.63291004    -0.07430000
opls_142-342    C    0.78929990    0.12990003    0.75508996    0.01650000
opls_145-343    C    0.79823986    0.16112994    0.81673011    0.23020000
opls_145-344    C    0.76317007    0.15623995    0.85094002    -0.13340000
opls_145-345    C    0.75296008    0.17056999    0.89325990    -0.07410000
opls_700-346    C    0.77750016    0.18995998    0.90234986    0.08570000
opls_145-347    C    0.81241999    0.19488999    0.86827989    -0.07430000
opls_145-348    C    0.82265985    0.18055007    0.82587005    -0.13330000
opls_700-349    C    0.76992989    0.20337994    0.04882007    0.04070000
opls_700-350    C    0.76028984    0.22652997    0.04922991    0.03980000
opls_145-351    C    0.75476014    0.23855995    0.09711995    -0.07630000
opls_145-352    C    0.72566991    0.69230995    0.00000000    -0.07760000
opls_700-353    C    0.74466991    0.73787994    0.00000000    -0.02980000
opls_145-354    C    0.22566991    0.19230995    0.00000000    -0.07760000
opls_700-355    C    0.24466991    0.23787994    0.00000000    -0.02970000
opls_145-356    C    0.27433009    0.30769005    0.00000000    -0.07760000
opls_700-357    C    0.25533009    0.26212006    0.00000000    -0.02980000
opls_145-358    C    0.77433009    0.80769005    0.00000000    -0.07760000
opls_700-359    C    0.75533009    0.76212006    0.00000000    -0.02980000
opls_145-360    C    0.27433009    0.69230995    0.00000000    -0.07760000
opls_700-361    C    0.25533009    0.73787994    0.00000000    -0.02980000
opls_145-362    C    0.77433009    0.19230995    0.00000000    -0.07750000
opls_700-363    C    0.75533009    0.23787994    0.00000000    -0.02980000
opls_145-364    C    0.72566991    0.30769005    0.00000000    -0.07760000
opls_700-365    C    0.74466991    0.26212006    0.00000000    -0.02970000
opls_145-366    C    0.22566991    0.80769005    0.00000000    -0.07760000
opls_700-367    C    0.24466991    0.76212006    0.00000000    -0.02980000
opls_916-368    C    0.54003992    0.50000000    0.47177009    -0.00780000
opls_916-369    C    0.04003992    0.00000000    0.47177009    -0.00780000
opls_916-370    C    0.45996008    0.50000000    0.47177009    -0.00780000
opls_916-371    C    0.95996008    0.00000000    0.47177009    -0.00780000
opls_916-372    C    0.45996008    0.50000000    0.52822991    -0.00780000
opls_916-373    C    0.95996008    0.00000000    0.52822991    -0.00780000
opls_916-374    C    0.54003992    0.50000000    0.52822991    -0.00780000
opls_916-375    C    0.04003992    0.00000000    0.52822991    -0.00780000
opls_727-376    C    0.00000000    0.00000000    0.44432987    0.22110000
opls_727-377    C    0.50000000    0.50000000    0.44432987    0.22120000
opls_727-378    C    1.00000000    0.00000000    0.55567013    0.22120000
opls_727-379    C    0.50000000    0.50000000    0.55567013    0.22110000
opls_750-380    N    0.68744985    0.64579002    0.77601999    -0.27150000
opls_750-381    N    0.18744985    0.14579002    0.77601999    -0.27140000
opls_750-382    N    0.31255015    0.35420998    0.77601999    -0.27150000
opls_750-383    N    0.81255015    0.85420998    0.77601999    -0.27150000
opls_750-384    N    0.31255015    0.64579002    0.22398001    -0.27140000
opls_750-385    N    0.81255015    0.14579002    0.22398001    -0.27150000
opls_750-386    N    0.68744985    0.35420998    0.22398001    -0.27150000
opls_750-387    N    0.18744985    0.85420998    0.22398001    -0.27140000
opls_750-388    N    0.31255015    0.35420998    0.22398001    -0.27150000
opls_750-389    N    0.81255015    0.85420998    0.22398001    -0.27150000
opls_750-390    N    0.68744985    0.64579002    0.22398001    -0.27150000
opls_750-391    N    0.18744985    0.14579002    0.22398001    -0.27150000
opls_750-392    N    0.68744985    0.35420998    0.77601999    -0.27150000
opls_750-393    N    0.18744985    0.85420998    0.77601999    -0.27150000
opls_750-394    N    0.31255015    0.64579002    0.77601999    -0.27150000
opls_750-395    N    0.81255015    0.14579002    0.77601999    -0.27150000
opls_239-396    N    0.58051996    0.50000000    0.44217993    -0.12200000
opls_239-397    N    0.08051996    0.00000000    0.44217993    -0.12200000
opls_239-398    N    0.41948004    0.50000000    0.44217993    -0.12200000
opls_239-399    N    0.91948004    0.00000000    0.44217993    -0.12200000
opls_239-400    N    0.41948004    0.50000000    0.55782007    -0.12200000
opls_239-401    N    0.91948004    0.00000000    0.55782007    -0.12200000
opls_239-402    N    0.58051996    0.50000000    0.55782007    -0.12190000
opls_239-403    N    0.08051996    0.00000000    0.55782007    -0.12190000
opls_146-404    H    0.75144985    0.59334997    0.71559016    0.05000000
opls_146-405    H    0.71788997    0.56262006    0.65993003    0.05000000
opls_146-406    H    0.59502986    0.60012994    0.65440984    0.05010000
opls_146-407    H    0.62824992    0.63044993    0.71193003    0.05000000
opls_146-408    H    0.69386985    0.55131999    0.58146981    0.05000000
opls_146-409    H    0.66207984    0.51612994    0.54174010    0.05000000
opls_146-410    H    0.53638007    0.53190003    0.61527989    0.05000000
opls_146-411    H    0.56872996    0.56569993    0.65901999    0.05000000
opls_144-412    H    0.74661993    0.62884997    0.76573011    0.02950000
opls_146-413    H    0.75707011    0.64051005    0.84416993    0.05000000
opls_146-414    H    0.77551996    0.66652997    0.92071012    0.05000000
opls_146-415    H    0.66740993    0.71063999    0.87509996    0.05000000
opls_146-416    H    0.64882993    0.68479002    0.79863015    0.05000000
opls_146-417    H    0.74197014    0.72965003    0.13722991    0.05000000
opls_146-418    H    0.25144985    0.09334997    0.71559016    0.05010000
opls_146-419    H    0.21788997    0.06262006    0.65993003    0.05000000
opls_146-420    H    0.09502986    0.10012994    0.65440984    0.05000000
opls_146-421    H    0.12824992    0.13044993    0.71193003    0.05000000
opls_146-422    H    0.19386985    0.05131999    0.58146981    0.05000000
opls_146-423    H    0.16207984    0.01612994    0.54174010    0.05000000
opls_146-424    H    0.03638007    0.03190003    0.61527989    0.05000000
opls_146-425    H    0.06872996    0.06569993    0.65901999    0.05000000
opls_144-426    H    0.24661993    0.12884997    0.76573011    0.02960000
opls_146-427    H    0.25707011    0.14051005    0.84416993    0.05000000
opls_146-428    H    0.27551996    0.16652997    0.92071012    0.05000000
opls_146-429    H    0.16740993    0.21063999    0.87509996    0.05000000
opls_146-430    H    0.14882993    0.18479002    0.79863015    0.05000000
opls_146-431    H    0.24197014    0.22965003    0.13722991    0.05000000
opls_146-432    H    0.24855015    0.40665003    0.71559016    0.05000000
opls_146-433    H    0.28211003    0.43737994    0.65993003    0.05000000
opls_146-434    H    0.40497014    0.39987006    0.65440984    0.05000000
opls_146-435    H    0.37175008    0.36955007    0.71193003    0.05000000
opls_146-436    H    0.30613015    0.44868001    0.58146981    0.05000000
opls_146-437    H    0.33792016    0.48387006    0.54174010    0.05000000
opls_146-438    H    0.46361993    0.46809997    0.61527989    0.05000000
opls_146-439    H    0.43127004    0.43430007    0.65901999    0.05000000
opls_144-440    H    0.25338007    0.37115003    0.76573011    0.02950000
opls_146-441    H    0.24292989    0.35948995    0.84416993    0.05000000
opls_146-442    H    0.22448004    0.33347003    0.92071012    0.05000000
opls_146-443    H    0.33259007    0.28936001    0.87509996    0.05000000
opls_146-444    H    0.35117007    0.31520998    0.79863015    0.05000000
opls_146-445    H    0.25802986    0.27034997    0.13722991    0.05000000
opls_146-446    H    0.74855015    0.90665003    0.71559016    0.05000000
opls_146-447    H    0.78211003    0.93737994    0.65993003    0.05000000
opls_146-448    H    0.90497014    0.89987006    0.65440984    0.05000000
opls_146-449    H    0.87175008    0.86955007    0.71193003    0.05010000
opls_146-450    H    0.80613015    0.94868001    0.58146981    0.05000000
opls_146-451    H    0.83792016    0.98387006    0.54174010    0.05000000
opls_146-452    H    0.96361993    0.96809997    0.61527989    0.05000000
opls_146-453    H    0.93127004    0.93430007    0.65901999    0.05000000
opls_144-454    H    0.75338007    0.87115003    0.76573011    0.02950000
opls_146-455    H    0.74292989    0.85948995    0.84416993    0.05000000
opls_146-456    H    0.72448004    0.83347003    0.92071012    0.05000000
opls_146-457    H    0.83259007    0.78936001    0.87509996    0.05000000
opls_146-458    H    0.85117007    0.81520998    0.79863015    0.05000000
opls_146-459    H    0.75802986    0.77034997    0.13722991    0.05000000
opls_146-460    H    0.24855015    0.59334997    0.28440984    0.05000000
opls_146-461    H    0.28211003    0.56262006    0.34006997    0.05000000
opls_146-462    H    0.40497014    0.60012994    0.34559016    0.05010000
opls_146-463    H    0.37175008    0.63044993    0.28806997    0.05000000
opls_146-464    H    0.30613015    0.55131999    0.41853019    0.05000000
opls_146-465    H    0.33792016    0.51612994    0.45825990    0.05000000
opls_146-466    H    0.46361993    0.53190003    0.38472011    0.05000000
opls_146-467    H    0.43127004    0.56569993    0.34098001    0.05000000
opls_144-468    H    0.25338007    0.62884997    0.23426989    0.02950000
opls_146-469    H    0.24292989    0.64051005    0.15583007    0.05000000
opls_146-470    H    0.22448004    0.66652997    0.07928988    0.05000000
opls_146-471    H    0.33259007    0.71063999    0.12490004    0.05000000
opls_146-472    H    0.35117007    0.68479002    0.20136985    0.05000000
opls_146-473    H    0.25802986    0.72965003    0.86277009    0.05000000
opls_146-474    H    0.74855015    0.09334997    0.28440984    0.05000000
opls_146-475    H    0.78211003    0.06262006    0.34006997    0.05000000
opls_146-476    H    0.90497014    0.10012994    0.34559016    0.05000000
opls_146-477    H    0.87175008    0.13044993    0.28806997    0.05000000
opls_146-478    H    0.80613015    0.05131999    0.41853019    0.05000000
opls_146-479    H    0.83792016    0.01612994    0.45825990    0.05000000
opls_146-480    H    0.96361993    0.03190003    0.38472011    0.05000000
opls_146-481    H    0.93127004    0.06569993    0.34098001    0.05000000
opls_144-482    H    0.75338007    0.12884997    0.23426989    0.02950000
opls_146-483    H    0.74292989    0.14051005    0.15583007    0.05000000
opls_146-484    H    0.72448004    0.16652997    0.07928988    0.05000000
opls_146-485    H    0.83259007    0.21063999    0.12490004    0.05000000
opls_146-486    H    0.85117007    0.18479002    0.20136985    0.05000000
opls_146-487    H    0.75802986    0.22965003    0.86277009    0.05000000
opls_146-488    H    0.75144985    0.40665003    0.28440984    0.05000000
opls_146-489    H    0.71788997    0.43737994    0.34006997    0.05000000
opls_146-490    H    0.59502986    0.39987006    0.34559016    0.05000000
opls_146-491    H    0.62824992    0.36955007    0.28806997    0.05000000
opls_146-492    H    0.69386985    0.44868001    0.41853019    0.05000000
opls_146-493    H    0.66207984    0.48387006    0.45825990    0.05000000
opls_146-494    H    0.53638007    0.46809997    0.38472011    0.05000000
opls_146-495    H    0.56872996    0.43430007    0.34098001    0.05000000
opls_144-496    H    0.74661993    0.37115003    0.23426989    0.02950000
opls_146-497    H    0.75707011    0.35948995    0.15583007    0.05000000
opls_146-498    H    0.77551996    0.33347003    0.07928988    0.05000000
opls_146-499    H    0.66740993    0.28936001    0.12490004    0.05000000
opls_146-500    H    0.64882993    0.31520998    0.20136985    0.05000000
opls_146-501    H    0.74197014    0.27034997    0.86277009    0.05000000
opls_146-502    H    0.25144985    0.90665003    0.28440984    0.05010000
opls_146-503    H    0.21788997    0.93737994    0.34006997    0.05000000
opls_146-504    H    0.09502986    0.89987006    0.34559016    0.05000000
opls_146-505    H    0.12824992    0.86955007    0.28806997    0.05000000
opls_146-506    H    0.19386985    0.94868001    0.41853019    0.05000000
opls_146-507    H    0.16207984    0.98387006    0.45825990    0.05000000
opls_146-508    H    0.03638007    0.96809997    0.38472011    0.05000000
opls_146-509    H    0.06872996    0.93430007    0.34098001    0.05000000
opls_144-510    H    0.24661993    0.87115003    0.23426989    0.02950000
opls_146-511    H    0.25707011    0.85948995    0.15583007    0.05000000
opls_146-512    H    0.27551996    0.83347003    0.07928988    0.05000000
opls_146-513    H    0.16740993    0.78936001    0.12490004    0.05000000
opls_146-514    H    0.14882993    0.81520998    0.20136985    0.05000000
opls_146-515    H    0.24197014    0.77034997    0.86277009    0.05000000
opls_146-516    H    0.24855015    0.40665003    0.28440984    0.05000000
opls_146-517    H    0.28211003    0.43737994    0.34006997    0.05000000
opls_146-518    H    0.40497014    0.39987006    0.34559016    0.05000000
opls_146-519    H    0.37175008    0.36955007    0.28806997    0.05000000
opls_146-520    H    0.30613015    0.44868001    0.41853019    0.05000000
opls_146-521    H    0.33792016    0.48387006    0.45825990    0.05000000
opls_146-522    H    0.46361993    0.46809997    0.38472011    0.05000000
opls_146-523    H    0.43127004    0.43430007    0.34098001    0.05000000
opls_144-524    H    0.25338007    0.37115003    0.23426989    0.02950000
opls_146-525    H    0.24292989    0.35948995    0.15583007    0.05000000
opls_146-526    H    0.22448004    0.33347003    0.07928988    0.05010000
opls_146-527    H    0.33259007    0.28936001    0.12490004    0.05000000
opls_146-528    H    0.35117007    0.31520998    0.20136985    0.05000000
opls_146-529    H    0.25802986    0.27034997    0.86277009    0.05000000
opls_146-530    H    0.74855015    0.90665003    0.28440984    0.05000000
opls_146-531    H    0.78211003    0.93737994    0.34006997    0.05000000
opls_146-532    H    0.90497014    0.89987006    0.34559016    0.05000000
opls_146-533    H    0.87175008    0.86955007    0.28806997    0.05000000
opls_146-534    H    0.80613015    0.94868001    0.41853019    0.05000000
opls_146-535    H    0.83792016    0.98387006    0.45825990    0.05000000
opls_146-536    H    0.96361993    0.96809997    0.38472011    0.05000000
opls_146-537    H    0.93127004    0.93430007    0.34098001    0.05000000
opls_144-538    H    0.75338007    0.87115003    0.23426989    0.02950000
opls_146-539    H    0.74292989    0.85948995    0.15583007    0.05000000
opls_146-540    H    0.72448004    0.83347003    0.07928988    0.05000000
opls_146-541    H    0.83259007    0.78936001    0.12490004    0.05000000
opls_146-542    H    0.85117007    0.81520998    0.20136985    0.05000000
opls_146-543    H    0.75802986    0.77034997    0.86277009    0.05000000
opls_146-544    H    0.75144985    0.59334997    0.28440984    0.05000000
opls_146-545    H    0.71788997    0.56262006    0.34006997    0.05000000
opls_146-546    H    0.59502986    0.60012994    0.34559016    0.05000000
opls_146-547    H    0.62824992    0.63044993    0.28806997    0.05000000
opls_146-548    H    0.69386985    0.55131999    0.41853019    0.05000000
opls_146-549    H    0.66207984    0.51612994    0.45825990    0.05000000
opls_146-550    H    0.53638007    0.53190003    0.38472011    0.05000000
opls_146-551    H    0.56872996    0.56569993    0.34098001    0.05000000
opls_144-552    H    0.74661993    0.62884997    0.23426989    0.02950000
opls_146-553    H    0.75707011    0.64051005    0.15583007    0.05000000
opls_146-554    H    0.77551996    0.66652997    0.07928988    0.05000000
opls_146-555    H    0.66740993    0.71063999    0.12490004    0.05000000
opls_146-556    H    0.64882993    0.68479002    0.20136985    0.05000000
opls_146-557    H    0.74197014    0.72965003    0.86277009    0.05000000
opls_146-558    H    0.25144985    0.09334997    0.28440984    0.05000000
opls_146-559    H    0.21788997    0.06262006    0.34006997    0.05000000
opls_146-560    H    0.09502986    0.10012994    0.34559016    0.05000000
opls_146-561    H    0.12824992    0.13044993    0.28806997    0.05000000
opls_146-562    H    0.19386985    0.05131999    0.41853019    0.05010000
opls_146-563    H    0.16207984    0.01612994    0.45825990    0.05000000
opls_146-564    H    0.03638007    0.03190003    0.38472011    0.05000000
opls_146-565    H    0.06872996    0.06569993    0.34098001    0.05000000
opls_144-566    H    0.24661993    0.12884997    0.23426989    0.02950000
opls_146-567    H    0.25707011    0.14051005    0.15583007    0.05000000
opls_146-568    H    0.27551996    0.16652997    0.07928988    0.05000000
opls_146-569    H    0.16740993    0.21063999    0.12490004    0.05000000
opls_146-570    H    0.14882993    0.18479002    0.20136985    0.05000000
opls_146-571    H    0.24197014    0.22965003    0.86277009    0.05000000
opls_146-572    H    0.75144985    0.40665003    0.71559016    0.05000000
opls_146-573    H    0.71788997    0.43737994    0.65993003    0.05000000
opls_146-574    H    0.59502986    0.39987006    0.65440984    0.05000000
opls_146-575    H    0.62824992    0.36955007    0.71193003    0.05000000
opls_146-576    H    0.69386985    0.44868001    0.58146981    0.05000000
opls_146-577    H    0.66207984    0.48387006    0.54174010    0.05000000
opls_146-578    H    0.53638007    0.46809997    0.61527989    0.05000000
opls_146-579    H    0.56872996    0.43430007    0.65901999    0.05000000
opls_144-580    H    0.74661993    0.37115003    0.76573011    0.02950000
opls_146-581    H    0.75707011    0.35948995    0.84416993    0.05000000
opls_146-582    H    0.77551996    0.33347003    0.92071012    0.05020000
opls_146-583    H    0.66740993    0.28936001    0.87509996    0.05000000
opls_146-584    H    0.64882993    0.31520998    0.79863015    0.05000000
opls_146-585    H    0.74197014    0.27034997    0.13722991    0.05000000
opls_146-586    H    0.25144985    0.90665003    0.71559016    0.05000000
opls_146-587    H    0.21788997    0.93737994    0.65993003    0.05000000
opls_146-588    H    0.09502986    0.89987006    0.65440984    0.05000000
opls_146-589    H    0.12824992    0.86955007    0.71193003    0.05000000
opls_146-590    H    0.19386985    0.94868001    0.58146981    0.05000000
opls_146-591    H    0.16207984    0.98387006    0.54174010    0.05000000
opls_146-592    H    0.03638007    0.96809997    0.61527989    0.05000000
opls_146-593    H    0.06872996    0.93430007    0.65901999    0.05000000
opls_144-594    H    0.24661993    0.87115003    0.76573011    0.02950000
opls_146-595    H    0.25707011    0.85948995    0.84416993    0.05000000
opls_146-596    H    0.27551996    0.83347003    0.92071012    0.05000000
opls_146-597    H    0.16740993    0.78936001    0.87509996    0.05000000
opls_146-598    H    0.14882993    0.81520998    0.79863015    0.05000000
opls_146-599    H    0.24197014    0.77034997    0.13722991    0.05000000
opls_146-600    H    0.24855015    0.59334997    0.71559016    0.05000000
opls_146-601    H    0.28211003    0.56262006    0.65993003    0.05000000
opls_146-602    H    0.40497014    0.60012994    0.65440984    0.05000000
opls_146-603    H    0.37175008    0.63044993    0.71193003    0.05010000
opls_146-604    H    0.30613015    0.55131999    0.58146981    0.05000000
opls_146-605    H    0.33792016    0.51612994    0.54174010    0.05000000
opls_146-606    H    0.46361993    0.53190003    0.61527989    0.05000000
opls_146-607    H    0.43127004    0.56569993    0.65901999    0.05000000
opls_144-608    H    0.25338007    0.62884997    0.76573011    0.02950000
opls_146-609    H    0.24292989    0.64051005    0.84416993    0.05000000
opls_146-610    H    0.22448004    0.66652997    0.92071012    0.05000000
opls_146-611    H    0.33259007    0.71063999    0.87509996    0.05000000
opls_146-612    H    0.35117007    0.68479002    0.79863015    0.05000000
opls_146-613    H    0.25802986    0.72965003    0.13722991    0.05000000
opls_146-614    H    0.74855015    0.09334997    0.71559016    0.05000000
opls_146-615    H    0.78211003    0.06262006    0.65993003    0.05000000
opls_146-616    H    0.90497014    0.10012994    0.65440984    0.05000000
opls_146-617    H    0.87175008    0.13044993    0.71193003    0.05000000
opls_146-618    H    0.80613015    0.05131999    0.58146981    0.05000000
opls_146-619    H    0.83792016    0.01612994    0.54174010    0.05010000
opls_146-620    H    0.96361993    0.03190003    0.61527989    0.05000000
opls_146-621    H    0.93127004    0.06569993    0.65901999    0.05000000
opls_144-622    H    0.75338007    0.12884997    0.76573011    0.02950000
opls_146-623    H    0.74292989    0.14051005    0.84416993    0.05000000
opls_146-624    H    0.72448004    0.16652997    0.92071012    0.05000000
opls_146-625    H    0.83259007    0.21063999    0.87509996    0.05000000
opls_146-626    H    0.85117007    0.18479002    0.79863015    0.05000000
opls_146-627    H    0.75802986    0.22965003    0.13722991    0.05000000
opls_146-628    H    0.71823986    0.67361001    0.99914994    0.05000000
opls_146-629    H    0.21823986    0.17361001    0.99914994    0.05010000
opls_146-630    H    0.28176014    0.32638999    0.99914994    0.05000000
opls_146-631    H    0.78176014    0.82638999    0.99914994    0.05000000
opls_146-632    H    0.28176014    0.67361001    0.00085006    0.05000000
opls_146-633    H    0.78176014    0.17361001    0.00085006    0.05000000
opls_146-634    H    0.71823986    0.32638999    0.00085006    0.05000000
opls_146-635    H    0.21823986    0.82638999    0.00085006    0.05000000
opls_719-636    F    0.50000000    0.50000000    0.60979008    -0.07520000
opls_719-637    F    0.00000000    0.00000000    0.60979008    -0.07520000
opls_719-638    F    0.50000000    0.50000000    0.39020992    -0.07520000
opls_719-639    F    0.00000000    0.00000000    0.39020992    -0.07520000
