#======================================================================
# Crystal Data Generated By AuToFF
#----------------------------------------------------------------------

data_AuToFF_phase_1

_cell_length_a                         27.5000
_cell_length_b                         27.5000
_cell_length_c                         6.8000
_cell_angle_alpha                      90.00
_cell_angle_beta                       90.00
_cell_angle_gamma                      120.00
_symmetry_space_group_name_H-M_alt     'P 1'
_symmetry_space_group_IT_number        1

loop_
_space_group_symop_operation_xyz
   'x, y, z'

loop_
   _atom_site_label
   _atom_site_type_symbol
   _atom_site_fract_x
   _atom_site_fract_y
   _atom_site_fract_z
   _atom_site_charge
opls_521-0    C    0.46819993    0.50415986    0.18991029    0.11750000
opls_521-1    C    0.47515993    0.58541004    0.18690000    0.01670000
opls_522-2    C    0.42024988    0.56314994    0.18558971    0.11910000
opls_523-3    C    0.38828007    0.50832014    0.18612059    -0.22110000
opls_522-4    C    0.41288999    0.47861999    0.18828971    -0.22100000
opls_145-5    C    0.34012016    0.62655013    0.18408971    -0.10330000
opls_142-6    C    0.35170014    0.58623009    0.18468971    0.09470000
opls_280-7    C    0.28519018    0.61172000    0.18542059    0.17600000
opls_521-8    C    0.02208023    0.52546010    0.18285000    0.11750000
opls_521-9    C    0.09631010    0.51845001    0.18907941    0.01670000
opls_522-10    C    0.12898982    0.57336001    0.18752941    0.11920000
opls_523-11    C    0.10618001    0.60534983    0.18420000    -0.22110000
opls_522-12    C    0.05187982    0.58076983    0.18187941    -0.22090000
opls_145-13    C    0.27249998    0.65346977    0.18562059    -0.10330000
opls_142-14    C    0.22061005    0.64190009    0.18698971    0.09470000
opls_280-15    C    0.31261004    0.70842008    0.18395000    0.17600000
opls_521-16    C    0.48949019    0.97168003    0.18706029    0.11750000
opls_521-17    C    0.40828018    0.89733999    0.18416029    0.01670000
opls_522-18    C    0.43055014    0.86469010    0.18451029    0.11920000
opls_523-19    C    0.48536997    0.88759012    0.18600000    -0.22110000
opls_522-20    C    0.51503997    0.94190975    0.18722059    -0.22100000
opls_145-21    C    0.36706987    0.72112010    0.18327941    -0.10330000
opls_142-22    C    0.40742008    0.77300016    0.18345000    0.09470000
opls_280-23    C    0.38186983    0.68098985    0.18312059    0.17610000
opls_521-24    C    0.49677007    0.47511977    0.19212059    0.11750000
opls_521-25    C    0.57764000    0.48128000    0.19246029    0.01670000
opls_522-26    C    0.55494989    0.42630996    0.19323971    0.11910000
opls_523-27    C    0.50010025    0.39470013    0.19450000    -0.22110000
opls_522-28    C    0.47079972    0.41977981    0.19398971    -0.22110000
opls_145-29    C    0.61910005    0.34684011    0.18877941    -0.10330000
opls_142-30    C    0.57830998    0.35777995    0.19113971    0.09470000
opls_280-31    C    0.60496982    0.29210983    0.18785000    0.17600000
opls_521-32    C    0.51858990    0.02932015    0.18821029    0.11750000
opls_521-33    C    0.51256004    0.10410989    0.18872059    0.01670000
opls_522-34    C    0.56755021    0.13636005    0.18817941    0.11910000
opls_523-35    C    0.59908007    0.11304014    0.18826029    -0.22110000
opls_522-36    C    0.57393984    0.05866004    0.18823971    -0.22110000
opls_145-37    C    0.64714990    0.28002998    0.18583971    -0.10330000
opls_142-38    C    0.63619999    0.22829016    0.18602059    0.09470000
opls_280-39    C    0.70187026    0.32064017    0.18332941    0.17600000
opls_521-40    C    0.96449994    0.49697007    0.17947941    0.11750000
opls_521-41    C    0.88976983    0.41614985    0.17463971    0.01670000
opls_522-42    C    0.85751986    0.43886008    0.17727941    0.11910000
opls_523-43    C    0.88080998    0.49369995    0.17992941    -0.22110000
opls_522-44    C    0.93517016    0.52297014    0.18105000    -0.22100000
opls_145-45    C    0.71395995    0.37491991    0.18355000    -0.10330000
opls_142-46    C    0.76570005    0.41566992    0.18107059    0.09470000
opls_280-47    C    0.67335995    0.38905008    0.18686029    0.17600000
opls_520-48    N    0.49863994    0.55709007    0.18907059    -0.18540000
opls_238-49    N    0.40153989    0.59774015    0.18405000    -0.30410000
opls_520-50    N    0.04450984    0.49498986    0.18687059    -0.18550000
opls_238-51    N    0.18228993    0.59205986    0.18863971    -0.30400000
opls_520-52    N    0.43657019    0.94916001    0.18547941    -0.18530000
opls_238-53    N    0.39594989    0.81136015    0.18340000    -0.30410000
opls_520-54    N    0.54974002    0.50518985    0.19177059    -0.18540000
opls_238-55    N    0.58943992    0.40749002    0.19226029    -0.30310000
opls_520-56    N    0.48859003    0.05228988    0.18877059    -0.18540000
opls_238-57    N    0.58647004    0.18970007    0.18755000    -0.30140000
opls_520-58    N    0.94158980    0.44402978    0.17557941    -0.18530000
opls_238-59    N    0.80418983    0.40442985    0.17795000    -0.30300000
opls_281-60    O    0.24972012    0.56311005    0.18641029    -0.42500000
opls_281-61    O    0.29947994    0.74387988    0.18335000    -0.42510000
opls_281-62    O    0.43045997    0.69410977    0.18225000    -0.42780000
opls_281-63    O    0.55648998    0.25623013    0.18901029    -0.42570000
opls_281-64    O    0.73772014    0.30801992    0.18101029    -0.42560000
opls_281-65    O    0.68594997    0.43751013    0.18783971    -0.42570000
opls_524-66    H    0.50030996    0.62839010    0.18616029    0.10990000
opls_526-67    H    0.34546980    0.48935996    0.18475000    0.22570000
opls_910-68    H    0.42747010    0.63945003    0.18307059    0.26800000
opls_144-69    H    0.31967007    0.54540996    0.18596029    0.11010000
opls_524-70    H    0.11412985    0.49330988    0.19211029    0.10980000
opls_526-71    H    0.13005010    0.64815983    0.18283971    0.22570000
opls_910-72    H    0.19805986    0.56612991    0.18847941    0.26800000
opls_144-73    H    0.21181981    0.67392980    0.18651029    0.11000000
opls_524-74    H    0.36528988    0.87945977    0.18265000    0.10990000
opls_526-75    H    0.50435020    0.86376004    0.18621029    0.22570000
opls_910-76    H    0.35425998    0.79559996    0.18296029    0.26810000
opls_144-77    H    0.44822007    0.78170996    0.18377941    0.11090000
opls_525-78    H    0.38904016    0.43583015    0.18850000    0.22570000
opls_524-79    H    0.62066006    0.50606995    0.19206029    0.10990000
opls_526-80    H    0.48082008    0.35186998    0.19572059    0.22570000
opls_910-81    H    0.63116992    0.43361984    0.19093971    0.26010000
opls_144-82    H    0.53762023    0.32546010    0.19183971    0.11090000
opls_524-83    H    0.48776994    0.12233989    0.18893971    0.10990000
opls_526-84    H    0.64191996    0.13655992    0.18821029    0.22570000
opls_910-85    H    0.56037995    0.20535991    0.18815000    0.26010000
opls_144-86    H    0.66852003    0.21992005    0.18486029    0.11100000
opls_524-87    H    0.87154999    0.37313999    0.17203971    0.10980000
opls_526-88    H    0.85725005    0.51298009    0.18177059    0.22570000
opls_910-89    H    0.78848991    0.36267000    0.17815000    0.26020000
opls_144-90    H    0.77416970    0.45639977    0.18182059    0.11000000
opls_525-91    H    0.42800009    0.39628018    0.19497941    0.22570000
opls_525-92    H    0.95445999    0.56575998    0.18387941    0.22570000
opls_525-93    H    0.59744014    0.03935009    0.18797059    0.22580000
opls_525-94    H    0.03295990    0.60460998    0.17867059    0.22570000
opls_525-95    H    0.55782000    0.96088001    0.18825000    0.22570000
