#======================================================================
# Crystal Data Generated By AuToFF
#----------------------------------------------------------------------

data_AuToFF_phase_1

_cell_length_a                         27.3310
_cell_length_b                         8.5430
_cell_length_c                         31.5080
_cell_angle_alpha                      90.00
_cell_angle_beta                       90.48
_cell_angle_gamma                      90.00
_symmetry_space_group_name_H-M_alt     'P 1'
_symmetry_space_group_IT_number        1

loop_
_space_group_symop_operation_xyz
   'x, y, z'

loop_
   _atom_site_label
   _atom_site_type_symbol
   _atom_site_fract_x
   _atom_site_fract_y
   _atom_site_fract_z
   _atom_site_charge
opls_700-0    C    0.53257987    0.14132974    0.77788999    0.06110000
opls_145-1    C    0.57972000    0.19519958    0.76550001    -0.11560000
opls_145-2    C    0.51121996    0.23714035    0.81018005    -0.11340000
opls_145-3    C    0.57945009    0.43572047    0.81254017    0.15970000
opls_145-4    C    0.53386010    0.37736041    0.82720997    -0.19220000
opls_145-5    C    0.60238003    0.33473019    0.78262007    -0.19110000
opls_700-6    C    0.46810005    0.89359007    0.77869997    0.06170000
opls_145-7    C    0.43073995    0.79567014    0.76070995    -0.11310000
opls_145-8    C    0.42741012    0.60583987    0.82215013    0.16090000
opls_145-9    C    0.48194995    0.84580007    0.82050001    -0.11320000
opls_145-10    C    0.41080007    0.65852979    0.78161997    -0.19110000
opls_145-11    C    0.46189995    0.70963011    0.84141003    -0.19110000
opls_700-12    C    0.96897021    0.36817980    0.77932016    0.06160000
opls_145-13    C    0.92001001    0.32099028    0.77029991    -0.10990000
opls_145-14    C    0.92174008    0.07972024    0.81722993    0.16080000
opls_145-15    C    0.99212997    0.26948964    0.81030003    -0.11340000
opls_145-16    C    0.89727017    0.18412970    0.78877999    -0.16390000
opls_145-17    C    0.96950008    0.13195950    0.82880009    -0.19110000
opls_700-18    C    0.03345012    0.61626010    0.77745009    0.06170000
opls_145-19    C    0.06806001    0.71871942    0.75770998    -0.11310000
opls_145-20    C    0.02276994    0.66178041    0.81996997    -0.11330000
opls_145-21    C    0.07521994    0.90642046    0.81939993    0.16080000
opls_145-22    C    0.04344994    0.79896055    0.84016014    -0.19110000
opls_145-23    C    0.08838004    0.85734988    0.77783001    -0.19220000
opls_700-24    C    0.24860020    0.74922041    0.51888014    -0.02030000
opls_142-25    C    0.41000991    0.69622030    0.64506008    0.02670000
opls_142-26    C    0.08711000    0.81681962    0.64102002    0.02660000
opls_700-27    C    0.25773999    0.75570057    0.47357008    -0.01950000
opls_142-28    C    0.11952999    0.82368957    0.32753006    0.02650000
opls_142-29    C    0.38071013    0.65882009    0.33278002    0.02660000
opls_145-30    C    0.15558005    0.10469039    0.54343000    -0.11330000
opls_145-31    C    0.22887987    0.93802997    0.58552013    -0.11250000
opls_145-32    C    0.17737022    0.96626010    0.52512005    -0.11340000
opls_700-33    C    0.21826998    0.88476999    0.54331002    0.04770000
opls_145-34    C    0.20536020    0.07331031    0.60497999    -0.11250000
opls_700-35    C    0.16988995    0.16939014    0.58351993    0.05220000
opls_145-36    C    0.08817992    0.55607047    0.59781997    -0.11560000
opls_145-37    C    0.17294006    0.42948028    0.63285006    -0.11190000
opls_145-38    C    0.10619002    0.40559054    0.58434991    -0.11020000
opls_700-39    C    0.14949989    0.33436966    0.60089993    0.05220000
opls_145-40    C    0.15471998    0.58226033    0.64640011    -0.11250000
opls_700-41    C    0.11139021    0.65215966    0.62910993    0.05750000
opls_145-42    C    0.15903993    0.54491045    0.32804994    -0.11550000
opls_145-43    C    0.14770989    0.48488002    0.41403997    -0.11250000
opls_145-44    C    0.17610991    0.40051972    0.34650018    -0.10700000
opls_700-45    C    0.17258989    0.36572984    0.39044990    0.05180000
opls_145-46    C    0.12786986    0.62681025    0.39486989    -0.11270000
opls_700-47    C    0.13402018    0.66445043    0.35102998    0.05760000
opls_145-48    C    0.39229998    0.88826056    0.39208002    -0.11260000
opls_145-49    C    0.32011016    0.07471965    0.35422007    -0.11550000
opls_145-50    C    0.37917003    0.04117055    0.40932989    -0.11200000
opls_700-51    C    0.34245997    0.14219010    0.39101994    0.04710000
opls_145-52    C    0.33301010    0.92351048    0.33729014    -0.11560000
opls_700-53    C    0.36949989    0.82303992    0.35513987    0.05750000
opls_145-54    C    0.37460989    0.07359944    0.57783007    -0.10710000
opls_145-55    C    0.34763006    0.93953997    0.65536005    -0.11350000
opls_145-56    C    0.39694989    0.93160950    0.59332001    -0.11330000
opls_700-57    C    0.38385007    0.85615006    0.63212990    0.05790000
opls_145-58    C    0.32618995    0.08552031    0.64031001    -0.11320000
opls_700-59    C    0.33811015    0.15626946    0.60043019    0.05180000
opls_145-60    C    0.19264006    0.06066019    0.39182992    -0.10990000
opls_145-61    C    0.25166988    0.06416950    0.46424007    -0.11650000
opls_145-62    C    0.21200997    0.91821959    0.41066007    -0.10700000
opls_700-63    C    0.24133003    0.91186000    0.44842988    0.05140000
opls_145-64    C    0.22578017    0.21114011    0.44773004    -0.11640000
opls_700-65    C    0.19619020    0.21149011    0.41066007    0.05180000
opls_145-66    C    0.27324996    0.55563971    0.40748998    -0.11330000
opls_145-67    C    0.34212014    0.37219946    0.44966993    -0.11330000
opls_145-68    C    0.29321016    0.41464942    0.38855000    -0.11340000
opls_700-69    C    0.32624992    0.31018963    0.40979011    0.05240000
opls_145-70    C    0.32376005    0.51734988    0.46755013    -0.11270000
opls_700-71    C    0.28487999    0.61003980    0.44940015    0.05540000
opls_145-72    C    0.24763003    0.45092942    0.53987014    -0.13340000
opls_145-73    C    0.33287990    0.46377970    0.58848011    -0.10700000
opls_145-74    C    0.27084993    0.31149011    0.55607992    -0.15580000
opls_700-75    C    0.31330021    0.31158024    0.58232020    0.05170000
opls_145-76    C    0.31081004    0.60419057    0.57094015    -0.10990000
opls_700-77    C    0.26769005    0.60257989    0.54522008    0.05170000
opls_700-78    C    0.46742013    0.14132974    0.72211017    0.06110000
opls_145-79    C    0.42028000    0.19519958    0.73450015    -0.11560000
opls_145-80    C    0.48878004    0.23714035    0.68982011    -0.11340000
opls_145-81    C    0.42054991    0.43572047    0.68745999    0.15980000
opls_145-82    C    0.46613990    0.37736041    0.67279019    -0.19220000
opls_145-83    C    0.39761997    0.33473019    0.71738009    -0.19110000
opls_700-84    C    0.53189995    0.89359007    0.72130018    0.06170000
opls_145-85    C    0.56926006    0.79567014    0.73929021    -0.11310000
opls_145-86    C    0.57258988    0.60583987    0.67785003    0.16080000
opls_145-87    C    0.51805005    0.84580007    0.67950015    -0.11330000
opls_145-88    C    0.58919993    0.65852979    0.71838019    -0.19110000
opls_145-89    C    0.53810005    0.70963011    0.65859013    -0.19110000
opls_700-90    C    0.03103016    0.36817980    0.72068000    0.06160000
opls_145-91    C    0.07998998    0.32099028    0.72969993    -0.10990000
opls_145-92    C    0.07825992    0.07972024    0.68276991    0.16080000
opls_145-93    C    0.00787003    0.26948964    0.68970013    -0.11340000
opls_145-94    C    0.10273020    0.18412970    0.71122017    -0.16390000
opls_145-95    C    0.03049992    0.13195950    0.67120006    -0.19110000
opls_700-96    C    0.96654988    0.61626010    0.72255007    0.06170000
opls_145-97    C    0.93193999    0.71871942    0.74229018    -0.11310000
opls_145-98    C    0.97723006    0.66178041    0.68003019    -0.11330000
opls_145-99    C    0.92478006    0.90642046    0.68059991    0.16080000
opls_145-100    C    0.95655006    0.79896055    0.65984002    -0.19110000
opls_145-101    C    0.91161996    0.85734988    0.72217015    -0.19220000
opls_700-102    C    0.75140017    0.74922041    0.98112001    -0.02030000
opls_142-103    C    0.58999009    0.69622030    0.85494008    0.02670000
opls_142-104    C    0.91289000    0.81681962    0.85898014    0.02660000
opls_700-105    C    0.74226001    0.75570057    0.02643008    -0.01950000
opls_142-106    C    0.88047001    0.82368957    0.17247010    0.02650000
opls_142-107    C    0.61928987    0.65882009    0.16722014    0.02660000
opls_145-108    C    0.84441996    0.10469039    0.95657016    -0.11330000
opls_145-109    C    0.77112013    0.93802997    0.91448003    -0.11250000
opls_145-110    C    0.82263015    0.96626010    0.97488011    -0.11340000
opls_700-111    C    0.78173002    0.88476999    0.95669014    0.04770000
opls_145-112    C    0.79464017    0.07331031    0.89502017    -0.11250000
opls_700-113    C    0.83011005    0.16939014    0.91648023    0.05220000
opls_145-114    C    0.91182008    0.55607047    0.90218019    -0.11560000
opls_145-115    C    0.82705994    0.42948028    0.86715010    -0.11200000
opls_145-116    C    0.89380998    0.40559054    0.91564993    -0.11020000
opls_700-117    C    0.85050011    0.33436966    0.89910023    0.05220000
opls_145-118    C    0.84528002    0.58226033    0.85360005    -0.11250000
opls_700-119    C    0.88861016    0.65215966    0.87089023    0.05750000
opls_145-120    C    0.84096007    0.54491045    0.17194990    -0.11550000
opls_145-121    C    0.85229010    0.48488002    0.08595987    -0.11250000
opls_145-122    C    0.82389009    0.40051972    0.15349998    -0.10700000
opls_700-123    C    0.82741011    0.36572984    0.10954994    0.05180000
opls_145-124    C    0.87213014    0.62681025    0.10512995    -0.11270000
opls_700-125    C    0.86598018    0.66445043    0.14896986    0.05750000
opls_145-126    C    0.60770002    0.88826056    0.10792014    -0.11260000
opls_145-127    C    0.67988985    0.07471965    0.14578008    -0.11550000
opls_145-128    C    0.62082996    0.04117055    0.09066995    -0.11200000
opls_700-129    C    0.65754003    0.14219010    0.10897990    0.04710000
opls_145-130    C    0.66698990    0.92351048    0.16271002    -0.11560000
opls_700-131    C    0.63050011    0.82303992    0.14485997    0.05750000
opls_145-132    C    0.62539012    0.07359944    0.92217009    -0.10710000
opls_145-133    C    0.65236995    0.93953997    0.84464011    -0.11350000
opls_145-134    C    0.60305011    0.93160950    0.90668015    -0.11330000
opls_700-135    C    0.61614993    0.85615006    0.86786994    0.05790000
opls_145-136    C    0.67381005    0.08552031    0.85969014    -0.11320000
opls_700-137    C    0.66189021    0.15626946    0.89956997    0.05180000
opls_145-138    C    0.80735994    0.06066019    0.10816992    -0.10990000
opls_145-139    C    0.74833012    0.06416950    0.03576009    -0.11650000
opls_145-140    C    0.78799004    0.91821959    0.08934008    -0.10700000
opls_700-141    C    0.75866997    0.91186000    0.05156996    0.05140000
opls_145-142    C    0.77421983    0.21114011    0.05227012    -0.11640000
opls_700-143    C    0.80381017    0.21149011    0.08934008    0.05180000
opls_145-144    C    0.72675004    0.55563971    0.09250987    -0.11330000
opls_145-145    C    0.65787986    0.37219946    0.05032991    -0.11340000
opls_145-146    C    0.70678984    0.41464942    0.11145015    -0.11340000
opls_700-147    C    0.67375008    0.31018963    0.09021005    0.05240000
opls_145-148    C    0.67623995    0.51734988    0.03245002    -0.11270000
opls_700-149    C    0.71512001    0.61003980    0.05060001    0.05540000
opls_145-150    C    0.75236997    0.45092942    0.96013002    -0.13340000
opls_145-151    C    0.66712010    0.46377970    0.91152004    -0.10690000
opls_145-152    C    0.72915007    0.31149011    0.94392024    -0.15580000
opls_700-153    C    0.68670015    0.31158024    0.91767996    0.05170000
opls_145-154    C    0.68918996    0.60419057    0.92906001    -0.10990000
opls_700-155    C    0.73230995    0.60257989    0.95478008    0.05170000
opls_700-156    C    0.46742013    0.85867026    0.22211001    0.06110000
opls_145-157    C    0.42028000    0.80480042    0.23449999    -0.11560000
opls_145-158    C    0.48878004    0.76285965    0.18981995    -0.11340000
opls_145-159    C    0.42054991    0.56427953    0.18746015    0.15970000
opls_145-160    C    0.46613990    0.62263959    0.17279003    -0.19220000
opls_145-161    C    0.39761997    0.66526981    0.21737993    -0.19110000
opls_700-162    C    0.53189995    0.10640993    0.22130003    0.06170000
opls_145-163    C    0.56926005    0.20432986    0.23929005    -0.11310000
opls_145-164    C    0.57258988    0.39416013    0.17784987    0.16080000
opls_145-165    C    0.51805005    0.15419993    0.17949999    -0.11330000
opls_145-166    C    0.58919993    0.34147021    0.21838003    -0.19110000
opls_145-167    C    0.53810005    0.29036989    0.15858997    -0.19110000
opls_700-168    C    0.03103016    0.63182020    0.22068016    0.06160000
opls_145-169    C    0.07998999    0.67900972    0.22970009    -0.10990000
opls_145-170    C    0.07825992    0.92027976    0.18277007    0.16080000
opls_145-171    C    0.00787003    0.73051036    0.18969997    -0.11340000
opls_145-172    C    0.10273019    0.81587030    0.21122001    -0.16390000
opls_145-173    C    0.03049992    0.86804050    0.17119991    -0.19110000
opls_700-174    C    0.96654988    0.38373990    0.22254991    0.06170000
opls_145-175    C    0.93193999    0.28128058    0.24229002    -0.11310000
opls_145-176    C    0.97723006    0.33821959    0.18003003    -0.11330000
opls_145-177    C    0.92478006    0.09357954    0.18060007    0.16080000
opls_145-178    C    0.95655006    0.20103945    0.15983986    -0.19110000
opls_145-179    C    0.91161996    0.14265012    0.22216999    -0.19220000
opls_700-180    C    0.75140017    0.25077959    0.48112017    -0.02030000
opls_142-181    C    0.58999009    0.30377970    0.35493992    0.02670000
opls_142-182    C    0.91289000    0.18318038    0.35897998    0.02660000
opls_700-183    C    0.74226001    0.24429943    0.52642992    -0.01950000
opls_142-184    C    0.88047001    0.17631043    0.67246994    0.02650000
opls_142-185    C    0.61928987    0.34117991    0.66721998    0.02660000
opls_145-186    C    0.84441995    0.89530961    0.45657000    -0.11330000
opls_145-187    C    0.77112013    0.06197003    0.41448019    -0.11250000
opls_145-188    C    0.82263015    0.03373990    0.47487995    -0.11340000
opls_700-189    C    0.78173002    0.11523001    0.45668998    0.04770000
opls_145-190    C    0.79464017    0.92668969    0.39502001    -0.11250000
opls_700-191    C    0.83011005    0.83060986    0.41648007    0.05220000
opls_145-192    C    0.91182008    0.44392953    0.40218003    -0.11560000
opls_145-193    C    0.82705994    0.57051972    0.36714994    -0.11200000
opls_145-194    C    0.89380998    0.59440946    0.41565009    -0.11020000
opls_700-195    C    0.85050011    0.66563034    0.39910007    0.05220000
opls_145-196    C    0.84528002    0.41773967    0.35359989    -0.11250000
opls_700-197    C    0.88861016    0.34784034    0.37089007    0.05750000
opls_145-198    C    0.84096007    0.45508955    0.67195006    -0.11550000
opls_145-199    C    0.85229011    0.51511998    0.58596003    -0.11250000
opls_145-200    C    0.82389010    0.59948028    0.65350014    -0.10700000
opls_700-201    C    0.82741011    0.63427016    0.60955010    0.05180000
opls_145-202    C    0.87213014    0.37318975    0.60513011    -0.11270000
opls_700-203    C    0.86598018    0.33554957    0.64897002    0.05750000
opls_145-204    C    0.60770002    0.11173944    0.60791998    -0.11260000
opls_145-205    C    0.67989021    0.92528035    0.64577993    -0.11550000
opls_145-206    C    0.62082997    0.95882945    0.59067011    -0.11200000
opls_700-207    C    0.65754003    0.85780990    0.60898006    0.04710000
opls_145-208    C    0.66698990    0.07648952    0.66271018    -0.11560000
opls_700-209    C    0.63050011    0.17696008    0.64486013    0.05750000
opls_145-210    C    0.62539011    0.92640056    0.42216993    -0.10710000
opls_145-211    C    0.65236994    0.06046003    0.34463995    -0.11350000
opls_145-212    C    0.60305011    0.06839050    0.40667999    -0.11330000
opls_700-213    C    0.61614993    0.14384994    0.36787010    0.05790000
opls_145-214    C    0.67381005    0.91447969    0.35968999    -0.11320000
opls_700-215    C    0.66188985    0.84373054    0.39957013    0.05180000
opls_145-216    C    0.80735994    0.93933981    0.60817008    -0.10990000
opls_145-217    C    0.74833012    0.93583050    0.53575993    -0.11650000
opls_145-218    C    0.78799003    0.08178041    0.58933993    -0.10690000
opls_700-219    C    0.75866997    0.08814000    0.55157012    0.05140000
opls_145-220    C    0.77422020    0.78885989    0.55226996    -0.11640000
opls_700-221    C    0.80381016    0.78850989    0.58933993    0.05180000
opls_145-222    C    0.72675004    0.44436029    0.59251002    -0.11330000
opls_145-223    C    0.65787986    0.62780054    0.55033007    -0.11340000
opls_145-224    C    0.70679021    0.58535058    0.61145000    -0.11340000
opls_700-225    C    0.67375008    0.68981037    0.59020989    0.05240000
opls_145-226    C    0.67623995    0.48265012    0.53245018    -0.11270000
opls_700-227    C    0.71512001    0.38996020    0.55060017    0.05540000
opls_145-228    C    0.75236997    0.54907058    0.46013017    -0.13340000
opls_145-229    C    0.66712010    0.53622030    0.41151989    -0.10700000
opls_145-230    C    0.72915007    0.68850989    0.44392008    -0.15580000
opls_700-231    C    0.68670016    0.68841976    0.41768012    0.05170000
opls_145-232    C    0.68918996    0.39580943    0.42906016    -0.10990000
opls_700-233    C    0.73230995    0.39742011    0.45477992    0.05170000
opls_700-234    C    0.53257987    0.85867026    0.27789015    0.06110000
opls_145-235    C    0.57972000    0.80480042    0.26550017    -0.11560000
opls_145-236    C    0.51121996    0.76285965    0.31017989    -0.11340000
opls_145-237    C    0.57945009    0.56427953    0.31254001    0.15980000
opls_145-238    C    0.53386010    0.62263959    0.32721013    -0.19220000
opls_145-239    C    0.60238003    0.66526981    0.28261991    -0.19110000
opls_700-240    C    0.46810005    0.10640993    0.27870013    0.06180000
opls_145-241    C    0.43073995    0.20432986    0.26071011    -0.11310000
opls_145-242    C    0.42741012    0.39416013    0.32214997    0.16080000
opls_145-243    C    0.48194995    0.15419993    0.32050017    -0.11330000
opls_145-244    C    0.41080008    0.34147021    0.28162013    -0.19110000
opls_145-245    C    0.46189995    0.29036989    0.34141019    -0.19110000
opls_700-246    C    0.96896984    0.63182020    0.27932000    0.06170000
opls_145-247    C    0.92001002    0.67900972    0.27030007    -0.10990000
opls_145-248    C    0.92174008    0.92027976    0.31723009    0.16080000
opls_145-249    C    0.99212997    0.73051036    0.31030018    -0.11340000
opls_145-250    C    0.89727017    0.81587030    0.28878014    -0.16390000
opls_145-251    C    0.96950008    0.86804050    0.32879994    -0.19110000
opls_700-252    C    0.03345012    0.38373990    0.27744993    0.06170000
opls_145-253    C    0.06806001    0.28128058    0.25771013    -0.11310000
opls_145-254    C    0.02276995    0.33821959    0.31997013    -0.11330000
opls_145-255    C    0.07521994    0.09357954    0.31940009    0.16090000
opls_145-256    C    0.04344994    0.20103945    0.34015998    -0.19100000
opls_145-257    C    0.08838004    0.14265012    0.27783016    -0.19220000
opls_700-258    C    0.24859983    0.25077959    0.01887999    -0.02030000
opls_142-259    C    0.41000991    0.30377970    0.14505992    0.02670000
opls_142-260    C    0.08711000    0.18318038    0.14101986    0.02660000
opls_700-261    C    0.25773999    0.24429943    0.97356992    -0.01950000
opls_142-262    C    0.11953000    0.17631043    0.82753021    0.02650000
opls_142-263    C    0.38071013    0.34117991    0.83278017    0.02660000
opls_145-264    C    0.15558005    0.89530961    0.04343016    -0.11330000
opls_145-265    C    0.22887987    0.06197003    0.08551997    -0.11250000
opls_145-266    C    0.17736985    0.03373990    0.02511989    -0.11340000
opls_700-267    C    0.21826998    0.11523001    0.04330986    0.04770000
opls_145-268    C    0.20535983    0.92668969    0.10498015    -0.11250000
opls_700-269    C    0.16988995    0.83060986    0.08352009    0.05220000
opls_145-270    C    0.08817992    0.44392953    0.09782013    -0.11560000
opls_145-271    C    0.17294006    0.57051972    0.13284990    -0.11200000
opls_145-272    C    0.10619002    0.59440946    0.08435007    -0.11020000
opls_700-273    C    0.14949989    0.66563034    0.10090009    0.05220000
opls_145-274    C    0.15471998    0.41773967    0.14639995    -0.11250000
opls_700-275    C    0.11138985    0.34784034    0.12911009    0.05750000
opls_145-276    C    0.15903993    0.45508955    0.82805010    -0.11550000
opls_145-277    C    0.14770990    0.51511998    0.91404013    -0.11250000
opls_145-278    C    0.17610991    0.59948028    0.84650002    -0.10700000
opls_700-279    C    0.17258989    0.63427016    0.89045006    0.05180000
opls_145-280    C    0.12787023    0.37318975    0.89487005    -0.11270000
opls_700-281    C    0.13402018    0.33554957    0.85103014    0.05750000
opls_145-282    C    0.39229999    0.11173944    0.89208018    -0.11260000
opls_145-283    C    0.32011015    0.92528035    0.85421992    -0.11550000
opls_145-284    C    0.37917004    0.95882945    0.90933005    -0.11200000
opls_700-285    C    0.34245997    0.85780990    0.89102010    0.04710000
opls_145-286    C    0.33301010    0.07648952    0.83728998    -0.11560000
opls_700-287    C    0.36949989    0.17696008    0.85514003    0.05750000
opls_145-288    C    0.37460988    0.92640056    0.07782991    -0.10710000
opls_145-289    C    0.34763005    0.06046003    0.15535989    -0.11350000
opls_145-290    C    0.39694989    0.06839050    0.09332016    -0.11330000
opls_700-291    C    0.38385007    0.14384994    0.13213006    0.05790000
opls_145-292    C    0.32618995    0.91447969    0.14030986    -0.11320000
opls_700-293    C    0.33811015    0.84373054    0.10043003    0.05180000
opls_145-294    C    0.19264006    0.93933981    0.89183008    -0.10990000
opls_145-295    C    0.25167025    0.93583050    0.96424023    -0.11650000
opls_145-296    C    0.21200997    0.08178041    0.91066023    -0.10700000
opls_700-297    C    0.24133003    0.08814000    0.94843004    0.05150000
opls_145-298    C    0.22578017    0.78885989    0.94773020    -0.11640000
opls_700-299    C    0.19619020    0.78850989    0.91066023    0.05180000
opls_145-300    C    0.27324996    0.44436029    0.90749013    -0.11330000
opls_145-301    C    0.34212014    0.62780054    0.94967009    -0.11330000
opls_145-302    C    0.29321016    0.58535058    0.88855016    -0.11340000
opls_700-303    C    0.32624992    0.68981037    0.90978995    0.05240000
opls_145-304    C    0.32376005    0.48265012    0.96754998    -0.11270000
opls_700-305    C    0.28487999    0.38996020    0.94939999    0.05540000
opls_145-306    C    0.24763003    0.54907058    0.03986998    -0.13340000
opls_145-307    C    0.33287990    0.53622030    0.08847996    -0.10700000
opls_145-308    C    0.27084993    0.68850989    0.05608008    -0.15580000
opls_700-309    C    0.31329985    0.68841976    0.08232004    0.05170000
opls_145-310    C    0.31081004    0.39580943    0.07093999    -0.10990000
opls_700-311    C    0.26769005    0.39742011    0.04521992    0.05180000
opls_701-312    C    0.50000000    0.01686995    0.74999992    0.02570000
opls_701-313    C    0.50000000    0.98313005    0.25000008    0.02570000
opls_701-314    C    1.00000000    0.49202037    0.74999992    0.02580000
opls_701-315    C    0.00000000    0.50797963    0.25000008    0.02580000
opls_750-316    N    0.60248011    0.59104998    0.82515994    -0.29560000
opls_750-317    N    0.41333010    0.45263022    0.84354004    -0.29600000
opls_750-318    N    0.89823018    0.92631979    0.83091011    -0.29560000
opls_750-319    N    0.09103011    0.05793983    0.84089998    -0.29550000
opls_750-320    N    0.39751989    0.59104998    0.67483990    -0.29550000
opls_750-321    N    0.58666990    0.45263022    0.65646012    -0.29600000
opls_750-322    N    0.10177019    0.92631979    0.66909005    -0.29560000
opls_750-323    N    0.90896989    0.05793983    0.65910018    -0.29550000
opls_750-324    N    0.39751989    0.40895002    0.17484006    -0.29570000
opls_750-325    N    0.58666990    0.54736978    0.15645996    -0.29600000
opls_750-326    N    0.10177019    0.07368021    0.16908989    -0.29550000
opls_750-327    N    0.90896989    0.94206017    0.15910002    -0.29550000
opls_750-328    N    0.60248011    0.40895002    0.32516010    -0.29560000
opls_750-329    N    0.41333010    0.54736978    0.34353988    -0.29590000
opls_750-330    N    0.89823018    0.07368021    0.33090995    -0.29560000
opls_750-331    N    0.09103011    0.94206017    0.34090014    -0.29550000
opls_146-332    H    0.59882010    0.13265012    0.74084003    0.10190000
opls_146-333    H    0.47526004    0.20613017    0.82140997    0.09830000
opls_146-334    H    0.51481996    0.44084045    0.85156018    0.08110000
opls_146-335    H    0.63832017    0.36611027    0.77135016    0.10150000
opls_146-336    H    0.41773992    0.82318038    0.72914005    0.10360000
opls_146-337    H    0.51024004    0.91064965    0.83699004    0.09820000
opls_146-338    H    0.38254003    0.59349058    0.76544003    0.08310000
opls_146-339    H    0.47475990    0.68246986    0.87310022    0.10200000
opls_146-340    H    0.89939988    0.38732998    0.74728020    0.09090000
opls_146-341    H    0.02918994    0.29721058    0.81953006    0.09740000
opls_146-342    H    0.86002002    0.15692965    0.77952011    0.10130000
opls_146-343    H    0.99013020    0.06585977    0.85192010    0.08560000
opls_146-344    H    0.07829013    0.69414960    0.72535009    0.10060000
opls_146-345    H    0.99633020    0.59460962    0.83764006    0.09970000
opls_146-346    H    0.03302003    0.82419057    0.87248004    0.10200000
opls_146-347    H    0.11427988    0.92628000    0.76029004    0.07730000
opls_144-348    H    0.44036005    0.66548987    0.62504003    0.08380000
opls_144-349    H    0.05376009    0.84141988    0.62369017    0.10200000
opls_144-350    H    0.13502003    0.83574037    0.29634991    0.08400000
opls_144-351    H    0.35884996    0.63690039    0.30470014    0.09620000
opls_146-352    H    0.12779988    0.16331031    0.52474997    0.10080000
opls_146-353    H    0.25697997    0.87791057    0.60349016    0.10140000
opls_146-354    H    0.16270988    0.92668032    0.49501014    0.10190000
opls_146-355    H    0.21684997    0.10662999    0.63660003    0.09830000
opls_146-356    H    0.05475017    0.59815053    0.58308003    0.09770000
opls_146-357    H    0.20645008    0.38712045    0.64729991    0.10130000
opls_146-358    H    0.08494007    0.34434976    0.56053989    0.10060000
opls_146-359    H    0.17499023    0.64558001    0.67053005    0.10080000
opls_146-360    H    0.16664986    0.56379024    0.29484008    0.09820000
opls_146-361    H    0.14332989    0.46841039    0.44785001    0.10110000
opls_146-362    H    0.19457017    0.31791057    0.32609005    0.09880000
opls_146-363    H    0.10975985    0.71075969    0.41510005    0.09860000
opls_146-364    H    0.42060016    0.82121035    0.40798003    0.09860000
opls_146-365    H    0.29132987    0.13779000    0.33793000    0.09940000
opls_146-366    H    0.39850992    0.07987943    0.43747991    0.09750000
opls_146-367    H    0.31353009    0.88432050    0.30918011    0.09920000
opls_146-368    H    0.38624998    0.11917008    0.54747990    0.09740000
opls_146-369    H    0.33587015    0.89303055    0.68554009    0.10080000
opls_146-370    H    0.42454006    0.87747044    0.57371002    0.09920000
opls_146-371    H    0.29951999    0.14287019    0.66015011    0.10280000
opls_146-372    H    0.17354996    0.05215030    0.36195012    0.07940000
opls_146-373    H    0.27768997    0.07517968    0.48996998    0.09300000
opls_146-374    H    0.20280008    0.81215966    0.39490004    0.20100000
opls_146-375    H    0.23342990    0.32092942    0.46280007    0.20580000
opls_146-376    H    0.24740000    0.61814000    0.38833005    0.20720000
opls_146-377    H    0.36927005    0.30856959    0.46787006    0.09820000
opls_146-378    H    0.28092985    0.38628000    0.35682998    0.10090000
opls_146-379    H    0.34145987    0.55707012    0.49614005    0.08140000
opls_146-380    H    0.21414986    0.43965001    0.52166017    0.09830000
opls_146-381    H    0.36710008    0.47213976    0.60521993    0.09020000
opls_146-382    H    0.25578001    0.20143041    0.54685020    0.20240000
opls_146-383    H    0.32936011    0.71405946    0.57491991    0.08140000
opls_146-384    H    0.40117990    0.13265012    0.75916013    0.10190000
opls_146-385    H    0.52473996    0.20613017    0.67859019    0.09830000
opls_146-386    H    0.48518004    0.44084045    0.64843998    0.08110000
opls_146-387    H    0.36168020    0.36611027    0.72865000    0.10190000
opls_146-388    H    0.58226008    0.82318038    0.77086011    0.10360000
opls_146-389    H    0.48975996    0.91064965    0.66301011    0.09820000
opls_146-390    H    0.61745997    0.59349058    0.73456013    0.08310000
opls_146-391    H    0.52524011    0.68246986    0.62689994    0.10190000
opls_146-392    H    0.10060012    0.38732998    0.75271996    0.09090000
opls_146-393    H    0.97081006    0.29721058    0.68047009    0.09740000
opls_146-394    H    0.13997998    0.15692965    0.72048005    0.10120000
opls_146-395    H    0.00987016    0.06585977    0.64808006    0.08560000
opls_146-396    H    0.92171023    0.69414960    0.77465007    0.10060000
opls_146-397    H    0.00367017    0.59460962    0.66236010    0.09970000
opls_146-398    H    0.96697997    0.82419057    0.62752012    0.10200000
opls_146-399    H    0.88572012    0.92628000    0.73971011    0.08430000
opls_144-400    H    0.55963995    0.66548987    0.87496013    0.08380000
opls_144-401    H    0.94623991    0.84141988    0.87630999    0.10200000
opls_144-402    H    0.86497996    0.83574037    0.20364993    0.08400000
opls_144-403    H    0.64115004    0.63690039    0.19530002    0.09620000
opls_146-404    H    0.87220012    0.16331031    0.97525019    0.10080000
opls_146-405    H    0.74302003    0.87791057    0.89651000    0.10140000
opls_146-406    H    0.83729012    0.92668032    0.00499002    0.10190000
opls_146-407    H    0.78315004    0.10662999    0.86340012    0.09830000
opls_146-408    H    0.94525019    0.59815053    0.91692013    0.09770000
opls_146-409    H    0.79354992    0.38712045    0.85269993    0.10130000
opls_146-410    H    0.91505993    0.34434976    0.93945995    0.10060000
opls_146-411    H    0.82501014    0.64558001    0.82947011    0.10080000
opls_146-412    H    0.83335014    0.56379024    0.20516007    0.09820000
opls_146-413    H    0.85667011    0.46841039    0.05215015    0.10110000
opls_146-414    H    0.80542983    0.31791057    0.17391010    0.09880000
opls_146-415    H    0.89024015    0.71075969    0.08490011    0.09860000
opls_146-416    H    0.57939985    0.82121035    0.09202013    0.09870000
opls_146-417    H    0.70867014    0.13779000    0.16207016    0.09940000
opls_146-418    H    0.60149007    0.07987943    0.06251994    0.09760000
opls_146-419    H    0.68646991    0.88432050    0.19082005    0.09930000
opls_146-420    H    0.61375001    0.11917008    0.95251994    0.09740000
opls_146-421    H    0.66413022    0.89303055    0.81446007    0.10080000
opls_146-422    H    0.57545994    0.87747044    0.92629014    0.09920000
opls_146-423    H    0.70048001    0.14287019    0.83985005    0.10280000
opls_146-424    H    0.82645004    0.05215030    0.13805003    0.07940000
opls_146-425    H    0.72231003    0.07517968    0.01002986    0.09300000
opls_146-426    H    0.79719992    0.81215966    0.10510012    0.20110000
opls_146-427    H    0.76657010    0.32092942    0.03720009    0.20580000
opls_146-428    H    0.75260001    0.61814000    0.11167011    0.20730000
opls_146-429    H    0.63072995    0.30856959    0.03213009    0.09820000
opls_146-430    H    0.71907015    0.38628000    0.14316986    0.10090000
opls_146-431    H    0.65854013    0.55707012    0.00386011    0.08140000
opls_146-432    H    0.78585014    0.43965001    0.97833999    0.09830000
opls_146-433    H    0.63289992    0.47213976    0.89478022    0.09010000
opls_146-434    H    0.74421999    0.20143041    0.95314996    0.20240000
opls_146-435    H    0.67063989    0.71405946    0.92507993    0.08140000
opls_146-436    H    0.40117990    0.86734988    0.25915997    0.10190000
opls_146-437    H    0.52473996    0.79386983    0.17859003    0.09830000
opls_146-438    H    0.48518004    0.55915955    0.14844014    0.08110000
opls_146-439    H    0.36168020    0.63388973    0.22865016    0.10190000
opls_146-440    H    0.58226008    0.17681962    0.27085995    0.10360000
opls_146-441    H    0.48975996    0.08935035    0.16300996    0.09820000
opls_146-442    H    0.61745997    0.40650942    0.23455997    0.08310000
opls_146-443    H    0.52524011    0.31753014    0.12690010    0.10190000
opls_146-444    H    0.10060013    0.61267002    0.25272012    0.09090000
opls_146-445    H    0.97081006    0.70278942    0.18046994    0.09740000
opls_146-446    H    0.13997998    0.84307035    0.22047989    0.10120000
opls_146-447    H    0.00987016    0.93414023    0.14807990    0.08570000
opls_146-448    H    0.92170987    0.30585040    0.27464991    0.10060000
opls_146-449    H    0.00367017    0.40539038    0.16235994    0.09970000
opls_146-450    H    0.96697997    0.17580943    0.12751996    0.10200000
opls_146-451    H    0.88572012    0.07372000    0.23970996    0.07730000
opls_144-452    H    0.55963995    0.33451013    0.37495997    0.08380000
opls_144-453    H    0.94623991    0.15858012    0.37631015    0.10200000
opls_144-454    H    0.86497997    0.16425963    0.70365009    0.08400000
opls_144-455    H    0.64115004    0.36309961    0.69530017    0.09620000
opls_146-456    H    0.87220012    0.83668969    0.47525003    0.10080000
opls_146-457    H    0.74302003    0.12208943    0.39651016    0.10140000
opls_146-458    H    0.83729012    0.07331968    0.50499018    0.10190000
opls_146-459    H    0.78315003    0.89337001    0.36339997    0.09830000
opls_146-460    H    0.94525019    0.40184947    0.41691997    0.09770000
opls_146-461    H    0.79354992    0.61287955    0.35270009    0.10130000
opls_146-462    H    0.91505993    0.65565024    0.43946011    0.10060000
opls_146-463    H    0.82501014    0.35441999    0.32946995    0.10080000
opls_146-464    H    0.83335014    0.43620976    0.70515992    0.09820000
opls_146-465    H    0.85667011    0.53158961    0.55214999    0.10110000
opls_146-466    H    0.80543020    0.68208943    0.67390995    0.09880000
opls_146-467    H    0.89024015    0.28924031    0.58489995    0.09860000
opls_146-468    H    0.57940021    0.17878965    0.59201997    0.09860000
opls_146-469    H    0.70867013    0.86221000    0.66207000    0.09950000
opls_146-470    H    0.60149008    0.92012057    0.56252009    0.09750000
opls_146-471    H    0.68646991    0.11567950    0.69082020    0.09920000
opls_146-472    H    0.61375002    0.88082992    0.45252010    0.09740000
opls_146-473    H    0.66412985    0.10696945    0.31445991    0.10080000
opls_146-474    H    0.57545994    0.12252956    0.42628998    0.09920000
opls_146-475    H    0.70048001    0.85712981    0.33984989    0.10280000
opls_146-476    H    0.82645004    0.94784970    0.63805019    0.07940000
opls_146-477    H    0.72231003    0.92482032    0.51003002    0.09300000
opls_146-478    H    0.79719992    0.18784034    0.60509996    0.20100000
opls_146-479    H    0.76657010    0.67907058    0.53719993    0.20580000
opls_146-480    H    0.75260000    0.38186000    0.61166995    0.20730000
opls_146-481    H    0.63072995    0.69143041    0.53212994    0.09820000
opls_146-482    H    0.71907015    0.61372000    0.64317002    0.10090000
opls_146-483    H    0.65854013    0.44292988    0.50385995    0.08140000
opls_146-484    H    0.78585015    0.56034999    0.47834015    0.09830000
opls_146-485    H    0.63289992    0.52786024    0.39478007    0.09010000
opls_146-486    H    0.74421999    0.79856959    0.45315012    0.20240000
opls_146-487    H    0.67063989    0.28594054    0.42508009    0.08140000
opls_146-488    H    0.59882010    0.86734988    0.24083987    0.10190000
opls_146-489    H    0.47526005    0.79386983    0.32141013    0.09830000
opls_146-490    H    0.51481996    0.55915955    0.35156002    0.08110000
opls_146-491    H    0.63832017    0.63388973    0.27135000    0.10150000
opls_146-492    H    0.41773992    0.17681962    0.22913989    0.09590000
opls_146-493    H    0.51024004    0.08935035    0.33698989    0.09820000
opls_146-494    H    0.38254003    0.40650942    0.26543987    0.08310000
opls_146-495    H    0.47475989    0.31753014    0.37310006    0.10190000
opls_146-496    H    0.89939988    0.61267002    0.24728004    0.09090000
opls_146-497    H    0.02918994    0.70278942    0.31952991    0.09740000
opls_146-498    H    0.86002002    0.84307035    0.27951995    0.10120000
opls_146-499    H    0.99013020    0.93414023    0.35191994    0.08570000
opls_146-500    H    0.07829013    0.30585040    0.22534993    0.10060000
opls_146-501    H    0.99633020    0.40539038    0.33763990    0.09970000
opls_146-502    H    0.03302003    0.17580943    0.37247988    0.10200000
opls_146-503    H    0.11427988    0.07372000    0.26028989    0.07730000
opls_144-504    H    0.44036005    0.33451013    0.12503987    0.08380000
opls_144-505    H    0.05376009    0.15858012    0.12369001    0.10200000
opls_144-506    H    0.13502004    0.16425963    0.79635007    0.08400000
opls_144-507    H    0.35884996    0.36309961    0.80469998    0.09620000
opls_146-508    H    0.12779988    0.83668969    0.02475013    0.10080000
opls_146-509    H    0.25697997    0.12208943    0.10349000    0.10140000
opls_146-510    H    0.16270988    0.07331968    0.99500998    0.10190000
opls_146-511    H    0.21684996    0.89337001    0.13659988    0.09840000
opls_146-512    H    0.05475017    0.40184947    0.08307987    0.09770000
opls_146-513    H    0.20645008    0.61287955    0.14730007    0.10130000
opls_146-514    H    0.08494007    0.65565024    0.06054005    0.10060000
opls_146-515    H    0.17498986    0.35441999    0.17052989    0.10080000
opls_146-516    H    0.16665022    0.43620976    0.79483993    0.09820000
opls_146-517    H    0.14332989    0.53158961    0.94785017    0.10110000
opls_146-518    H    0.19457017    0.68208943    0.82609021    0.09880000
opls_146-519    H    0.10976022    0.28924031    0.91510021    0.09860000
opls_146-520    H    0.42060016    0.17878965    0.90798019    0.09860000
opls_146-521    H    0.29133023    0.86221000    0.83793016    0.09940000
opls_146-522    H    0.39850993    0.92012057    0.93748006    0.09760000
opls_146-523    H    0.31353009    0.11567950    0.80917995    0.09920000
opls_146-524    H    0.38624999    0.88082992    0.04748006    0.09740000
opls_146-525    H    0.33587015    0.10696945    0.18553993    0.10080000
opls_146-526    H    0.42454006    0.12252956    0.07370986    0.09920000
opls_146-527    H    0.29951999    0.85712981    0.16014995    0.10280000
opls_146-528    H    0.17354996    0.94784970    0.86194997    0.07940000
opls_146-529    H    0.27768997    0.92482032    0.98997014    0.09300000
opls_146-530    H    0.20280008    0.18784034    0.89490020    0.20110000
opls_146-531    H    0.23342990    0.67907058    0.96280022    0.20580000
opls_146-532    H    0.24740000    0.38186000    0.88833021    0.20720000
opls_146-533    H    0.36927005    0.69143041    0.96787022    0.09820000
opls_146-534    H    0.28093022    0.61372000    0.85683014    0.10090000
opls_146-535    H    0.34146023    0.44292988    0.99614021    0.08140000
opls_146-536    H    0.21414986    0.56034999    0.02166001    0.09830000
opls_146-537    H    0.36710008    0.52786024    0.10522009    0.09010000
opls_146-538    H    0.25578001    0.79856959    0.04685004    0.20240000
opls_146-539    H    0.32936011    0.28594054    0.07492007    0.08140000
