#======================================================================
# Crystal Data Generated By AuToFF
#----------------------------------------------------------------------

data_AuToFF_phase_1

_cell_length_a                         27.1771
_cell_length_b                         27.1771
_cell_length_c                         27.1771
_cell_angle_alpha                      90.00
_cell_angle_beta                       90.00
_cell_angle_gamma                      90.00
_symmetry_space_group_name_H-M_alt     'P 1'
_symmetry_space_group_IT_number        1

loop_
_space_group_symop_operation_xyz
   'x, y, z'

loop_
   _atom_site_label
   _atom_site_type_symbol
   _atom_site_fract_x
   _atom_site_fract_y
   _atom_site_fract_z
   _atom_site_charge
opls_180-0    O    0.82850010    0.74692995    0.30298008    -0.60990000
opls_180-1    O    0.32850010    0.24692995    0.80298008    -0.60990000
opls_180-2    O    0.67149990    0.25307005    0.80298008    -0.60990000
opls_180-3    O    0.17149990    0.75307005    0.30298008    -0.61000000
opls_180-4    O    0.17149990    0.24692995    0.19701992    -0.61000000
opls_180-5    O    0.67149990    0.74692995    0.69701992    -0.60990000
opls_180-6    O    0.32850010    0.75307005    0.69701992    -0.60990000
opls_180-7    O    0.82850010    0.25307005    0.19701992    -0.60990000
opls_180-8    O    0.30298008    0.82850010    0.74692995    -0.60990000
opls_180-9    O    0.80298008    0.32850010    0.24692995    -0.60990000
opls_180-10    O    0.80298008    0.67149990    0.25307005    -0.60990000
opls_180-11    O    0.30298008    0.17149990    0.75307005    -0.60990000
opls_180-12    O    0.19701992    0.17149990    0.24692995    -0.61000000
opls_180-13    O    0.69701992    0.67149990    0.74692995    -0.60990000
opls_180-14    O    0.69701992    0.32850010    0.75307005    -0.61000000
opls_180-15    O    0.19701992    0.82850010    0.25307005    -0.60990000
opls_180-16    O    0.74692995    0.30298008    0.82850010    -0.60990000
opls_180-17    O    0.24692995    0.80298008    0.32850010    -0.61000000
opls_180-18    O    0.25307005    0.80298008    0.67149990    -0.60990000
opls_180-19    O    0.75307005    0.30298008    0.17149990    -0.60990000
opls_180-20    O    0.24692995    0.19701992    0.17149990    -0.61000000
opls_180-21    O    0.74692995    0.69701992    0.67149990    -0.60990000
opls_180-22    O    0.75307005    0.69701992    0.32850010    -0.60990000
opls_180-23    O    0.25307005    0.19701992    0.82850010    -0.61000000
opls_180-24    O    0.99693014    0.07849991    0.55297990    -0.60990000
opls_180-25    O    0.49693014    0.57849991    0.05297990    -0.60990000
opls_180-26    O    0.50306986    0.92150009    0.05297990    -0.61000000
opls_180-27    O    0.00306986    0.42150009    0.55297990    -0.60990000
opls_180-28    O    0.49693014    0.42150009    0.44702010    -0.61000000
opls_180-29    O    0.99693014    0.92150009    0.94702010    -0.60990000
opls_180-30    O    0.00306986    0.57849991    0.94702010    -0.60990000
opls_180-31    O    0.50306986    0.07849991    0.44702010    -0.60990000
opls_180-32    O    0.07849991    0.55297990    0.99693014    -0.61000000
opls_180-33    O    0.57849991    0.05297990    0.49693014    -0.60990000
opls_180-34    O    0.92150009    0.05297990    0.50306986    -0.60990000
opls_180-35    O    0.42150009    0.55297990    0.00306986    -0.60990000
opls_180-36    O    0.42150009    0.44702010    0.49693014    -0.60990000
opls_180-37    O    0.92150009    0.94702010    0.99693014    -0.60990000
opls_180-38    O    0.57849991    0.94702010    0.00306986    -0.60990000
opls_180-39    O    0.07849991    0.44702010    0.50306986    -0.60990000
opls_180-40    O    0.55297990    0.99693014    0.07849991    -0.60990000
opls_180-41    O    0.05297990    0.49693014    0.57849991    -0.60990000
opls_180-42    O    0.05297990    0.50306986    0.92150009    -0.61010000
opls_180-43    O    0.55297990    0.00306986    0.42150009    -0.60990000
opls_180-44    O    0.44702010    0.49693014    0.42150009    -0.60990000
opls_180-45    O    0.94702010    0.99693014    0.92150009    -0.60990000
opls_180-46    O    0.94702010    0.00306986    0.57849991    -0.60990000
opls_180-47    O    0.44702010    0.50306986    0.07849991    -0.60990000
MOF2_B_2-48    B    0.83533011    0.71325013    0.26216005    0.70270000
MOF2_B_2-49    B    0.33533011    0.21325013    0.76216005    0.70260000
MOF2_B_2-50    B    0.66466989    0.28674987    0.76216005    0.70260000
MOF2_B_2-51    B    0.16466989    0.78674987    0.26216005    0.70270000
MOF2_B_2-52    B    0.16466989    0.21325013    0.23783995    0.70260000
MOF2_B_2-53    B    0.66466989    0.71325013    0.73783995    0.70270000
MOF2_B_2-54    B    0.33533011    0.78674987    0.73783995    0.70270000
MOF2_B_2-55    B    0.83533011    0.28674987    0.23783995    0.70270000
MOF2_B_2-56    B    0.26216005    0.83533011    0.71325013    0.70270000
MOF2_B_2-57    B    0.76216005    0.33533011    0.21325013    0.70270000
MOF2_B_2-58    B    0.76216005    0.66466989    0.28674987    0.70270000
MOF2_B_2-59    B    0.26216005    0.16466989    0.78674987    0.70270000
MOF2_B_2-60    B    0.23783995    0.16466989    0.21325013    0.70270000
MOF2_B_2-61    B    0.73783995    0.66466989    0.71325013    0.70260000
MOF2_B_2-62    B    0.73783995    0.33533011    0.78674987    0.70270000
MOF2_B_2-63    B    0.23783995    0.83533011    0.28674987    0.70270000
MOF2_B_2-64    B    0.71325013    0.26216005    0.83533011    0.70270000
MOF2_B_2-65    B    0.21325013    0.76216005    0.33533011    0.70270000
MOF2_B_2-66    B    0.28674987    0.76216005    0.66466989    0.70270000
MOF2_B_2-67    B    0.78674987    0.26216005    0.16466989    0.70270000
MOF2_B_2-68    B    0.21325013    0.23783995    0.16466989    0.70270000
MOF2_B_2-69    B    0.71325013    0.73783995    0.66466989    0.70260000
MOF2_B_2-70    B    0.78674987    0.73783995    0.33533011    0.70260000
MOF2_B_2-71    B    0.28674987    0.23783995    0.83533011    0.70270000
MOF2_B_2-72    B    0.96324994    0.08532993    0.51215987    0.70270000
MOF2_B_2-73    B    0.46324994    0.58532993    0.01215987    0.70260000
MOF2_B_2-74    B    0.53675006    0.91467007    0.01215987    0.70270000
MOF2_B_2-75    B    0.03675006    0.41467007    0.51215987    0.70270000
MOF2_B_2-76    B    0.46324994    0.41467007    0.48784013    0.70270000
MOF2_B_2-77    B    0.96324994    0.91467007    0.98784013    0.70270000
MOF2_B_2-78    B    0.03675006    0.58532993    0.98784013    0.70270000
MOF2_B_2-79    B    0.53675006    0.08532993    0.48784013    0.70260000
MOF2_B_2-80    B    0.08532993    0.51215987    0.96324994    0.70260000
MOF2_B_2-81    B    0.58532993    0.01215987    0.46324994    0.70270000
MOF2_B_2-82    B    0.91467007    0.01215987    0.53675006    0.70260000
MOF2_B_2-83    B    0.41467007    0.51215987    0.03675006    0.70250000
MOF2_B_2-84    B    0.41467007    0.48784013    0.46324994    0.70270000
MOF2_B_2-85    B    0.91467007    0.98784013    0.96324994    0.70270000
MOF2_B_2-86    B    0.58532993    0.98784013    0.03675006    0.70260000
MOF2_B_2-87    B    0.08532993    0.48784013    0.53675006    0.70260000
MOF2_B_2-88    B    0.51215987    0.96324994    0.08532993    0.70260000
MOF2_B_2-89    B    0.01215987    0.46324994    0.58532993    0.70270000
MOF2_B_2-90    B    0.01215987    0.53675006    0.91467007    0.70270000
MOF2_B_2-91    B    0.51215987    0.03675006    0.41467007    0.70270000
MOF2_B_2-92    B    0.48784013    0.46324994    0.41467007    0.70270000
MOF2_B_2-93    B    0.98784013    0.96324994    0.91467007    0.70270000
MOF2_B_2-94    B    0.98784013    0.03675006    0.58532993    0.70270000
MOF2_B_2-95    B    0.48784013    0.53675006    0.08532993    0.70270000
opls_145-96    C    0.90490008    0.76629000    0.22757984    -0.07470000
opls_145-97    C    0.87893999    0.72230996    0.22630008    -0.24920000
opls_145-98    C    0.93120016    0.69418996    0.16048990    -0.13440000
opls_700-99    C    0.95634008    0.73930000    0.15960018    0.06070000
opls_145-100    C    0.89252017    0.68629986    0.19271997    -0.07470000
opls_145-101    C    0.94306015    0.77459000    0.19484014    -0.14020000
opls_145-102    C    0.40490008    0.26629000    0.72757984    -0.07470000
opls_145-103    C    0.37893999    0.22230996    0.72630008    -0.24920000
opls_145-104    C    0.43120016    0.19418996    0.66048990    -0.13440000
opls_700-105    C    0.45634008    0.23930000    0.65960018    0.06070000
opls_145-106    C    0.39252017    0.18629986    0.69271997    -0.07480000
opls_145-107    C    0.44306015    0.27459000    0.69484014    -0.14020000
opls_145-108    C    0.59509992    0.23371000    0.72757984    -0.07470000
opls_145-109    C    0.62106001    0.27769004    0.72630008    -0.24920000
opls_145-110    C    0.56879984    0.30581004    0.66048990    -0.13440000
opls_700-111    C    0.54365992    0.26070000    0.65960018    0.06070000
opls_145-112    C    0.60747983    0.31370014    0.69271997    -0.07470000
opls_145-113    C    0.55693985    0.22541000    0.69484014    -0.14030000
opls_145-114    C    0.09509992    0.73371000    0.22757984    -0.07470000
opls_145-115    C    0.12106001    0.77769004    0.22630008    -0.24920000
opls_145-116    C    0.06879984    0.80581004    0.16048990    -0.13440000
opls_700-117    C    0.04365992    0.76070000    0.15960018    0.06070000
opls_145-118    C    0.10747983    0.81370014    0.19271997    -0.07470000
opls_145-119    C    0.05693985    0.72541000    0.19484014    -0.14020000
opls_145-120    C    0.09509992    0.26629000    0.27242016    -0.07470000
opls_145-121    C    0.12106001    0.22230996    0.27369992    -0.24920000
opls_145-122    C    0.06879984    0.19418996    0.33951010    -0.13440000
opls_700-123    C    0.04365992    0.23930000    0.34039982    0.06070000
opls_145-124    C    0.10747983    0.18629986    0.30728003    -0.07470000
opls_145-125    C    0.05693985    0.27459000    0.30515986    -0.14020000
opls_145-126    C    0.59509992    0.76629000    0.77242016    -0.07470000
opls_145-127    C    0.62106001    0.72230996    0.77369992    -0.24920000
opls_145-128    C    0.56879984    0.69418996    0.83951010    -0.13450000
opls_700-129    C    0.54365992    0.73930000    0.84039982    0.06070000
opls_145-130    C    0.60747983    0.68629986    0.80728003    -0.07470000
opls_145-131    C    0.55693985    0.77459000    0.80515986    -0.14020000
opls_145-132    C    0.40490008    0.73371000    0.77242016    -0.07470000
opls_145-133    C    0.37893999    0.77769004    0.77369992    -0.24930000
opls_145-134    C    0.43120016    0.80581004    0.83951010    -0.13440000
opls_700-135    C    0.45634008    0.76070000    0.84039982    0.06070000
opls_145-136    C    0.39252017    0.81370014    0.80728003    -0.07470000
opls_145-137    C    0.44306015    0.72541000    0.80515986    -0.14020000
opls_145-138    C    0.90490008    0.23371000    0.27242016    -0.07470000
opls_145-139    C    0.87893999    0.27769004    0.27369992    -0.24920000
opls_145-140    C    0.93120016    0.30581004    0.33951010    -0.13440000
opls_700-141    C    0.95634008    0.26070000    0.34039982    0.06070000
opls_145-142    C    0.89252017    0.31370014    0.30728003    -0.07470000
opls_145-143    C    0.94306015    0.22541000    0.30515986    -0.14020000
opls_145-144    C    0.22757984    0.90490008    0.76629000    -0.07470000
opls_145-145    C    0.22630008    0.87893999    0.72230996    -0.24920000
opls_145-146    C    0.16048990    0.93120016    0.69418996    -0.13440000
opls_700-147    C    0.15960018    0.95634008    0.73930000    0.06070000
opls_145-148    C    0.19271997    0.89252017    0.68629986    -0.07470000
opls_145-149    C    0.19484014    0.94306015    0.77459000    -0.14020000
opls_145-150    C    0.72757984    0.40490008    0.26629000    -0.07470000
opls_145-151    C    0.72630008    0.37893999    0.22230996    -0.24920000
opls_145-152    C    0.66048990    0.43120016    0.19418996    -0.13460000
opls_700-153    C    0.65960018    0.45634008    0.23930000    0.06070000
opls_145-154    C    0.69271997    0.39252017    0.18629986    -0.07470000
opls_145-155    C    0.69484014    0.44306015    0.27459000    -0.14030000
opls_145-156    C    0.72757984    0.59509992    0.23371000    -0.07470000
opls_145-157    C    0.72630008    0.62106001    0.27769004    -0.24920000
opls_145-158    C    0.66048990    0.56879984    0.30581004    -0.13440000
opls_700-159    C    0.65960018    0.54365992    0.26070000    0.06070000
opls_145-160    C    0.69271997    0.60747983    0.31370014    -0.07470000
opls_145-161    C    0.69484014    0.55693985    0.22541000    -0.14020000
opls_145-162    C    0.22757984    0.09509992    0.73371000    -0.07470000
opls_145-163    C    0.22630008    0.12106001    0.77769004    -0.24920000
opls_145-164    C    0.16048990    0.06879984    0.80581004    -0.13440000
opls_700-165    C    0.15960018    0.04365992    0.76070000    0.06070000
opls_145-166    C    0.19271997    0.10747983    0.81370014    -0.07470000
opls_145-167    C    0.19484014    0.05693985    0.72541000    -0.14020000
opls_145-168    C    0.27242016    0.09509992    0.26629000    -0.07470000
opls_145-169    C    0.27369992    0.12106001    0.22230996    -0.24920000
opls_145-170    C    0.33951010    0.06879984    0.19418996    -0.13440000
opls_700-171    C    0.34039982    0.04365992    0.23930000    0.06070000
opls_145-172    C    0.30728003    0.10747983    0.18629986    -0.07470000
opls_145-173    C    0.30515986    0.05693985    0.27459000    -0.14020000
opls_145-174    C    0.77242016    0.59509992    0.76629000    -0.07470000
opls_145-175    C    0.77369992    0.62106001    0.72230996    -0.24920000
opls_145-176    C    0.83951010    0.56879984    0.69418996    -0.13440000
opls_700-177    C    0.84039982    0.54365992    0.73930000    0.06070000
opls_145-178    C    0.80728003    0.60747983    0.68629986    -0.07470000
opls_145-179    C    0.80515986    0.55693985    0.77459000    -0.14020000
opls_145-180    C    0.77242016    0.40490008    0.73371000    -0.07470000
opls_145-181    C    0.77369992    0.37893999    0.77769004    -0.24920000
opls_145-182    C    0.83951010    0.43120016    0.80581004    -0.13440000
opls_700-183    C    0.84039982    0.45634008    0.76070000    0.06070000
opls_145-184    C    0.80728003    0.39252017    0.81370014    -0.07470000
opls_145-185    C    0.80515986    0.44306015    0.72541000    -0.14020000
opls_145-186    C    0.27242016    0.90490008    0.23371000    -0.07470000
opls_145-187    C    0.27369992    0.87893999    0.27769004    -0.24930000
opls_145-188    C    0.33951010    0.93120016    0.30581004    -0.13440000
opls_700-189    C    0.34039982    0.95634008    0.26070000    0.06070000
opls_145-190    C    0.30728003    0.89252017    0.31370014    -0.07470000
opls_145-191    C    0.30515986    0.94306015    0.22541000    -0.14020000
opls_145-192    C    0.76629000    0.22757984    0.90490008    -0.07470000
opls_145-193    C    0.72230996    0.22630008    0.87893999    -0.24920000
opls_145-194    C    0.69418996    0.16048990    0.93120016    -0.13440000
opls_700-195    C    0.73930000    0.15960018    0.95634008    0.06070000
opls_145-196    C    0.68629986    0.19271997    0.89252017    -0.07470000
opls_145-197    C    0.77459000    0.19484014    0.94306015    -0.14030000
opls_145-198    C    0.26629000    0.72757984    0.40490008    -0.07470000
opls_145-199    C    0.22230996    0.72630008    0.37893999    -0.24920000
opls_145-200    C    0.19418996    0.66048990    0.43120016    -0.13440000
opls_700-201    C    0.23930000    0.65960018    0.45634008    0.06060000
opls_145-202    C    0.18629986    0.69271997    0.39252017    -0.07470000
opls_145-203    C    0.27459000    0.69484014    0.44306015    -0.14030000
opls_145-204    C    0.23371000    0.72757984    0.59509992    -0.07470000
opls_145-205    C    0.27769004    0.72630008    0.62106001    -0.24920000
opls_145-206    C    0.30581004    0.66048990    0.56879984    -0.13440000
opls_700-207    C    0.26070000    0.65960018    0.54365992    0.06070000
opls_145-208    C    0.31370014    0.69271997    0.60747983    -0.07470000
opls_145-209    C    0.22541000    0.69484014    0.55693985    -0.14020000
opls_145-210    C    0.73371000    0.22757984    0.09509992    -0.07470000
opls_145-211    C    0.77769004    0.22630008    0.12106001    -0.24920000
opls_145-212    C    0.80581004    0.16048990    0.06879984    -0.13440000
opls_700-213    C    0.76070000    0.15960018    0.04365992    0.06070000
opls_145-214    C    0.81370014    0.19271997    0.10747983    -0.07470000
opls_145-215    C    0.72541000    0.19484014    0.05693985    -0.14020000
opls_145-216    C    0.26629000    0.27242016    0.09509992    -0.07470000
opls_145-217    C    0.22230996    0.27369992    0.12106001    -0.24920000
opls_145-218    C    0.19418996    0.33951010    0.06879984    -0.13440000
opls_700-219    C    0.23930000    0.34039982    0.04365992    0.06070000
opls_145-220    C    0.18629986    0.30728003    0.10747983    -0.07470000
opls_145-221    C    0.27459000    0.30515986    0.05693985    -0.14020000
opls_145-222    C    0.76629000    0.77242016    0.59509992    -0.07470000
opls_145-223    C    0.72230996    0.77369992    0.62106001    -0.24920000
opls_145-224    C    0.69418996    0.83951010    0.56879984    -0.13450000
opls_700-225    C    0.73930000    0.84039982    0.54365992    0.06070000
opls_145-226    C    0.68629986    0.80728003    0.60747983    -0.07470000
opls_145-227    C    0.77459000    0.80515986    0.55693985    -0.14020000
opls_145-228    C    0.73371000    0.77242016    0.40490008    -0.07470000
opls_145-229    C    0.77769004    0.77369992    0.37893999    -0.24920000
opls_145-230    C    0.80581004    0.83951010    0.43120016    -0.13450000
opls_700-231    C    0.76070000    0.84039982    0.45634008    0.06070000
opls_145-232    C    0.81370014    0.80728003    0.39252017    -0.07470000
opls_145-233    C    0.72541000    0.80515986    0.44306015    -0.14020000
opls_145-234    C    0.23371000    0.27242016    0.90490008    -0.07470000
opls_145-235    C    0.27769004    0.27369992    0.87893999    -0.24920000
opls_145-236    C    0.30581004    0.33951010    0.93120016    -0.13440000
opls_700-237    C    0.26070000    0.34039982    0.95634008    0.06070000
opls_145-238    C    0.31370014    0.30728003    0.89252017    -0.07480000
opls_145-239    C    0.22541000    0.30515986    0.94306015    -0.14020000
opls_145-240    C    0.01628982    0.15489990    0.47758002    -0.07470000
opls_145-241    C    0.97231014    0.12894017    0.47629990    -0.24920000
opls_145-242    C    0.94419015    0.18119998    0.41049008    -0.13440000
opls_700-243    C    0.98930018    0.20633990    0.40959999    0.06070000
opls_145-244    C    0.93630005    0.14251999    0.44272016    -0.07470000
opls_145-245    C    0.02458982    0.19305997    0.44483996    -0.14020000
opls_145-246    C    0.51628982    0.65489990    0.97758002    -0.07470000
opls_145-247    C    0.47231014    0.62894017    0.97629990    -0.24920000
opls_145-248    C    0.44419015    0.68119998    0.91049008    -0.13440000
opls_700-249    C    0.48930018    0.70633990    0.90959999    0.06070000
opls_145-250    C    0.43630005    0.64251999    0.94272016    -0.07470000
opls_145-251    C    0.52458982    0.69305997    0.94483996    -0.14020000
opls_145-252    C    0.48371018    0.84510010    0.97758002    -0.07480000
opls_145-253    C    0.52768986    0.87105983    0.97629990    -0.24920000
opls_145-254    C    0.55580985    0.81880002    0.91049008    -0.13440000
opls_700-255    C    0.51069982    0.79366010    0.90959999    0.06070000
opls_145-256    C    0.56369995    0.85748001    0.94272016    -0.07480000
opls_145-257    C    0.47541018    0.80694003    0.94483996    -0.14020000
opls_145-258    C    0.98371018    0.34510010    0.47758002    -0.07470000
opls_145-259    C    0.02768986    0.37105983    0.47629990    -0.24920000
opls_145-260    C    0.05580985    0.31880002    0.41049008    -0.13440000
opls_700-261    C    0.01069982    0.29366010    0.40959999    0.06070000
opls_145-262    C    0.06369995    0.35748001    0.44272016    -0.07470000
opls_145-263    C    0.97541018    0.30694003    0.44483996    -0.14020000
opls_145-264    C    0.51628982    0.34510010    0.52241998    -0.07470000
opls_145-265    C    0.47231014    0.37105983    0.52370010    -0.24920000
opls_145-266    C    0.44419015    0.31880002    0.58950992    -0.13450000
opls_700-267    C    0.48930018    0.29366010    0.59040001    0.06070000
opls_145-268    C    0.43630005    0.35748001    0.55727984    -0.07470000
opls_145-269    C    0.52458982    0.30694003    0.55516004    -0.14020000
opls_145-270    C    0.01628982    0.84510010    0.02241998    -0.07470000
opls_145-271    C    0.97231014    0.87105983    0.02370010    -0.24920000
opls_145-272    C    0.94419015    0.81880002    0.08950992    -0.13440000
opls_700-273    C    0.98930018    0.79366010    0.09040001    0.06070000
opls_145-274    C    0.93630005    0.85748001    0.05727984    -0.07470000
opls_145-275    C    0.02458982    0.80694003    0.05516004    -0.14020000
opls_145-276    C    0.98371018    0.65489990    0.02241998    -0.07470000
opls_145-277    C    0.02768986    0.62894017    0.02370010    -0.24920000
opls_145-278    C    0.05580985    0.68119998    0.08950992    -0.13440000
opls_700-279    C    0.01069982    0.70633990    0.09040001    0.06070000
opls_145-280    C    0.06369995    0.64251999    0.05727984    -0.07470000
opls_145-281    C    0.97541018    0.69305997    0.05516004    -0.14020000
opls_145-282    C    0.48371018    0.15489990    0.52241998    -0.07470000
opls_145-283    C    0.52768986    0.12894017    0.52370010    -0.24930000
opls_145-284    C    0.55580985    0.18119998    0.58950992    -0.13440000
opls_700-285    C    0.51069982    0.20633990    0.59040001    0.06070000
opls_145-286    C    0.56369995    0.14251999    0.55727984    -0.07470000
opls_145-287    C    0.47541018    0.19305997    0.55516004    -0.14020000
opls_145-288    C    0.15489990    0.47758002    0.01628982    -0.07470000
opls_145-289    C    0.12894017    0.47629990    0.97231014    -0.24920000
opls_145-290    C    0.18119998    0.41049008    0.94419015    -0.13440000
opls_700-291    C    0.20633990    0.40959999    0.98930018    0.06070000
opls_145-292    C    0.14251999    0.44272016    0.93630005    -0.07470000
opls_145-293    C    0.19305997    0.44483996    0.02458982    -0.14020000
opls_145-294    C    0.65489990    0.97758002    0.51628982    -0.07470000
opls_145-295    C    0.62894017    0.97629990    0.47231014    -0.24920000
opls_145-296    C    0.68119998    0.91049008    0.44419015    -0.13440000
opls_700-297    C    0.70633990    0.90959999    0.48930018    0.06070000
opls_145-298    C    0.64251999    0.94272016    0.43630005    -0.07470000
opls_145-299    C    0.69305997    0.94483996    0.52458982    -0.14020000
opls_145-300    C    0.84510010    0.97758002    0.48371018    -0.07470000
opls_145-301    C    0.87105983    0.97629990    0.52768986    -0.24930000
opls_145-302    C    0.81880002    0.91049008    0.55580985    -0.13440000
opls_700-303    C    0.79366010    0.90959999    0.51069982    0.06070000
opls_145-304    C    0.85748001    0.94272016    0.56369995    -0.07470000
opls_145-305    C    0.80694003    0.94483996    0.47541018    -0.14020000
opls_145-306    C    0.34510010    0.47758002    0.98371018    -0.07470000
opls_145-307    C    0.37105983    0.47629990    0.02768986    -0.24920000
opls_145-308    C    0.31880002    0.41049008    0.05580985    -0.13440000
opls_700-309    C    0.29366010    0.40959999    0.01069982    0.06070000
opls_145-310    C    0.35748001    0.44272016    0.06369995    -0.07470000
opls_145-311    C    0.30694003    0.44483996    0.97541018    -0.14020000
opls_145-312    C    0.34510010    0.52241998    0.51628982    -0.07470000
opls_145-313    C    0.37105983    0.52370010    0.47231014    -0.24920000
opls_145-314    C    0.31880002    0.58950992    0.44419015    -0.13440000
opls_700-315    C    0.29366010    0.59040001    0.48930018    0.06070000
opls_145-316    C    0.35748001    0.55727984    0.43630005    -0.07470000
opls_145-317    C    0.30694003    0.55516004    0.52458982    -0.14020000
opls_145-318    C    0.84510010    0.02241998    0.01628982    -0.07470000
opls_145-319    C    0.87105983    0.02370010    0.97231014    -0.24920000
opls_145-320    C    0.81880002    0.08950992    0.94419015    -0.13440000
opls_700-321    C    0.79366010    0.09040001    0.98930018    0.06070000
opls_145-322    C    0.85748001    0.05727984    0.93630005    -0.07470000
opls_145-323    C    0.80694003    0.05516004    0.02458982    -0.14020000
opls_145-324    C    0.65489990    0.02241998    0.98371018    -0.07470000
opls_145-325    C    0.62894017    0.02370010    0.02768986    -0.24920000
opls_145-326    C    0.68119998    0.08950992    0.05580985    -0.13440000
opls_700-327    C    0.70633990    0.09040001    0.01069982    0.06070000
opls_145-328    C    0.64251999    0.05727984    0.06369995    -0.07470000
opls_145-329    C    0.69305997    0.05516004    0.97541018    -0.14020000
opls_145-330    C    0.15489990    0.52241998    0.48371018    -0.07470000
opls_145-331    C    0.12894017    0.52370010    0.52768986    -0.24920000
opls_145-332    C    0.18119998    0.58950992    0.55580985    -0.13440000
opls_700-333    C    0.20633990    0.59040001    0.51069982    0.06070000
opls_145-334    C    0.14251999    0.55727984    0.56369995    -0.07470000
opls_145-335    C    0.19305997    0.55516004    0.47541018    -0.14020000
opls_145-336    C    0.47758002    0.01628982    0.15489990    -0.07470000
opls_145-337    C    0.47629990    0.97231014    0.12894017    -0.24920000
opls_145-338    C    0.41049008    0.94419015    0.18119998    -0.13440000
opls_700-339    C    0.40959999    0.98930018    0.20633990    0.06070000
opls_145-340    C    0.44272016    0.93630005    0.14251999    -0.07470000
opls_145-341    C    0.44483996    0.02458982    0.19305997    -0.14020000
opls_145-342    C    0.97758002    0.51628982    0.65489990    -0.07470000
opls_145-343    C    0.97629990    0.47231014    0.62894017    -0.24920000
opls_145-344    C    0.91049008    0.44419015    0.68119998    -0.13440000
opls_700-345    C    0.90959999    0.48930018    0.70633990    0.06070000
opls_145-346    C    0.94272016    0.43630005    0.64251999    -0.07470000
opls_145-347    C    0.94483996    0.52458982    0.69305997    -0.14020000
opls_145-348    C    0.97758002    0.48371018    0.84510010    -0.07470000
opls_145-349    C    0.97629990    0.52768986    0.87105983    -0.24920000
opls_145-350    C    0.91049008    0.55580985    0.81880002    -0.13440000
opls_700-351    C    0.90959999    0.51069982    0.79366010    0.06070000
opls_145-352    C    0.94272016    0.56369995    0.85748001    -0.07470000
opls_145-353    C    0.94483996    0.47541018    0.80694003    -0.14020000
opls_145-354    C    0.47758002    0.98371018    0.34510010    -0.07470000
opls_145-355    C    0.47629990    0.02768986    0.37105983    -0.24920000
opls_145-356    C    0.41049008    0.05580985    0.31880002    -0.13440000
opls_700-357    C    0.40959999    0.01069982    0.29366010    0.06070000
opls_145-358    C    0.44272016    0.06369995    0.35748001    -0.07470000
opls_145-359    C    0.44483996    0.97541018    0.30694003    -0.14020000
opls_145-360    C    0.52241998    0.51628982    0.34510010    -0.07470000
opls_145-361    C    0.52370010    0.47231014    0.37105983    -0.24930000
opls_145-362    C    0.58950992    0.44419015    0.31880002    -0.13440000
opls_700-363    C    0.59040001    0.48930018    0.29366010    0.06070000
opls_145-364    C    0.55727984    0.43630005    0.35748001    -0.07480000
opls_145-365    C    0.55516004    0.52458982    0.30694003    -0.14020000
opls_145-366    C    0.02241998    0.01628982    0.84510010    -0.07470000
opls_145-367    C    0.02370010    0.97231014    0.87105983    -0.24930000
opls_145-368    C    0.08950992    0.94419015    0.81880002    -0.13440000
opls_700-369    C    0.09040001    0.98930018    0.79366010    0.06070000
opls_145-370    C    0.05727984    0.93630005    0.85748001    -0.07470000
opls_145-371    C    0.05516004    0.02458982    0.80694003    -0.14020000
opls_145-372    C    0.02241998    0.98371018    0.65489990    -0.07470000
opls_145-373    C    0.02370010    0.02768986    0.62894017    -0.24920000
opls_145-374    C    0.08950992    0.05580985    0.68119998    -0.13440000
opls_700-375    C    0.09040001    0.01069982    0.70633990    0.06070000
opls_145-376    C    0.05727984    0.06369995    0.64251999    -0.07470000
opls_145-377    C    0.05516004    0.97541018    0.69305997    -0.14020000
opls_145-378    C    0.52241998    0.48371018    0.15489990    -0.07480000
opls_145-379    C    0.52370010    0.52768986    0.12894017    -0.24920000
opls_145-380    C    0.58950992    0.55580985    0.18119998    -0.13440000
opls_700-381    C    0.59040001    0.51069982    0.20633990    0.06070000
opls_145-382    C    0.55727984    0.56369995    0.14251999    -0.07470000
opls_145-383    C    0.55516004    0.47541018    0.19305997    -0.14020000
opls_701-384    C    0.00000000    0.75000018    0.12500009    0.00970000
opls_701-385    C    0.50000000    0.24999982    0.62500009    0.00970000
opls_701-386    C    0.00000000    0.24999982    0.37499991    0.00970000
opls_701-387    C    0.50000000    0.75000018    0.87499991    0.00970000
opls_701-388    C    0.12500009    0.00000000    0.75000018    0.00970000
opls_701-389    C    0.62500009    0.50000000    0.24999982    0.00970000
opls_701-390    C    0.37499991    0.00000000    0.24999982    0.00970000
opls_701-391    C    0.87499991    0.50000000    0.75000018    0.00970000
opls_701-392    C    0.75000018    0.12500009    0.00000000    0.00970000
opls_701-393    C    0.24999982    0.62500009    0.50000000    0.00970000
opls_701-394    C    0.24999982    0.37499991    0.00000000    0.00970000
opls_701-395    C    0.75000018    0.87499991    0.50000000    0.00970000
opls_146-396    H    0.89552013    0.79459987    0.25352006    0.09350000
opls_146-397    H    0.94125017    0.66414996    0.13716990    0.23790000
opls_146-398    H    0.87376983    0.65149998    0.19175997    0.09240000
opls_146-399    H    0.96222997    0.80910988    0.19660008    0.09350000
opls_146-400    H    0.39552013    0.29459987    0.75352006    0.09350000
opls_146-401    H    0.44125017    0.16414996    0.63716990    0.23800000
opls_146-402    H    0.37376983    0.15149998    0.69175997    0.09240000
opls_146-403    H    0.46222997    0.30910988    0.69660008    0.09350000
opls_146-404    H    0.60447987    0.20540013    0.75352006    0.09350000
opls_146-405    H    0.55874983    0.33585004    0.63716990    0.23800000
opls_146-406    H    0.62623017    0.34850002    0.69175997    0.09240000
opls_146-407    H    0.53777003    0.19089012    0.69660008    0.09350000
opls_146-408    H    0.10447987    0.70540013    0.25352006    0.09350000
opls_146-409    H    0.05874983    0.83585004    0.13716990    0.23800000
opls_146-410    H    0.12623017    0.84850002    0.19175997    0.09240000
opls_146-411    H    0.03777003    0.69089012    0.19660008    0.09350000
opls_146-412    H    0.10447987    0.29459987    0.24647994    0.09350000
opls_146-413    H    0.05874983    0.16414996    0.36283010    0.23800000
opls_146-414    H    0.12623017    0.15149998    0.30824003    0.09240000
opls_146-415    H    0.03777003    0.30910988    0.30339992    0.09350000
opls_146-416    H    0.60447987    0.79459987    0.74647994    0.09350000
opls_146-417    H    0.55874983    0.66414996    0.86283010    0.23800000
opls_146-418    H    0.62623017    0.65149998    0.80824003    0.09240000
opls_146-419    H    0.53777003    0.80910988    0.80339992    0.09350000
opls_146-420    H    0.39552013    0.70540013    0.74647994    0.09350000
opls_146-421    H    0.44125017    0.83585004    0.86283010    0.23800000
opls_146-422    H    0.37376983    0.84850002    0.80824003    0.09240000
opls_146-423    H    0.46222997    0.69089012    0.80339992    0.09350000
opls_146-424    H    0.89552013    0.20540013    0.24647994    0.09350000
opls_146-425    H    0.94125017    0.33585004    0.36283010    0.23800000
opls_146-426    H    0.87376983    0.34850002    0.30824003    0.09240000
opls_146-427    H    0.96222997    0.19089012    0.30339992    0.09350000
opls_146-428    H    0.25352006    0.89552013    0.79459987    0.09340000
opls_146-429    H    0.13716990    0.94125017    0.66414996    0.23800000
opls_146-430    H    0.19175997    0.87376983    0.65149998    0.09240000
opls_146-431    H    0.19660008    0.96222997    0.80910988    0.09350000
opls_146-432    H    0.75352006    0.39552013    0.29459987    0.09350000
opls_146-433    H    0.63716990    0.44125017    0.16414996    0.23800000
opls_146-434    H    0.69175997    0.37376983    0.15149998    0.09240000
opls_146-435    H    0.69660008    0.46222997    0.30910988    0.09350000
opls_146-436    H    0.75352006    0.60447987    0.20540013    0.09350000
opls_146-437    H    0.63716990    0.55874983    0.33585004    0.23800000
opls_146-438    H    0.69175997    0.62623017    0.34850002    0.09240000
opls_146-439    H    0.69660008    0.53777003    0.19089012    0.09350000
opls_146-440    H    0.25352006    0.10447987    0.70540013    0.09350000
opls_146-441    H    0.13716990    0.05874983    0.83585004    0.23800000
opls_146-442    H    0.19175997    0.12623017    0.84850002    0.09240000
opls_146-443    H    0.19660008    0.03777003    0.69089012    0.09350000
opls_146-444    H    0.24647994    0.10447987    0.29459987    0.09350000
opls_146-445    H    0.36283010    0.05874983    0.16414996    0.23800000
opls_146-446    H    0.30824003    0.12623017    0.15149998    0.09240000
opls_146-447    H    0.30339992    0.03777003    0.30910988    0.09350000
opls_146-448    H    0.74647994    0.60447987    0.79459987    0.09350000
opls_146-449    H    0.86283010    0.55874983    0.66414996    0.23800000
opls_146-450    H    0.80824003    0.62623017    0.65149998    0.09240000
opls_146-451    H    0.80339992    0.53777003    0.80910988    0.09350000
opls_146-452    H    0.74647994    0.39552013    0.70540013    0.09350000
opls_146-453    H    0.86283010    0.44125017    0.83585004    0.23800000
opls_146-454    H    0.80824003    0.37376983    0.84850002    0.09240000
opls_146-455    H    0.80339992    0.46222997    0.69089012    0.09350000
opls_146-456    H    0.24647994    0.89552013    0.20540013    0.09350000
opls_146-457    H    0.36283010    0.94125017    0.33585004    0.23800000
opls_146-458    H    0.30824003    0.87376983    0.34850002    0.09240000
opls_146-459    H    0.30339992    0.96222997    0.19089012    0.09350000
opls_146-460    H    0.79459987    0.25352006    0.89552013    0.09350000
opls_146-461    H    0.66414996    0.13716990    0.94125017    0.23800000
opls_146-462    H    0.65149998    0.19175997    0.87376983    0.09240000
opls_146-463    H    0.80910988    0.19660008    0.96222997    0.09350000
opls_146-464    H    0.29459987    0.75352006    0.39552013    0.09340000
opls_146-465    H    0.16414996    0.63716990    0.44125017    0.23800000
opls_146-466    H    0.15149998    0.69175997    0.37376983    0.09240000
opls_146-467    H    0.30910988    0.69660008    0.46222997    0.09350000
opls_146-468    H    0.20540013    0.75352006    0.60447987    0.09350000
opls_146-469    H    0.33585004    0.63716990    0.55874983    0.23800000
opls_146-470    H    0.34850002    0.69175997    0.62623017    0.09240000
opls_146-471    H    0.19089012    0.69660008    0.53777003    0.09350000
opls_146-472    H    0.70540013    0.25352006    0.10447987    0.09350000
opls_146-473    H    0.83585004    0.13716990    0.05874983    0.23800000
opls_146-474    H    0.84850002    0.19175997    0.12623017    0.09240000
opls_146-475    H    0.69089012    0.19660008    0.03777003    0.09350000
opls_146-476    H    0.29459987    0.24647994    0.10447987    0.09350000
opls_146-477    H    0.16414996    0.36283010    0.05874983    0.23800000
opls_146-478    H    0.15149998    0.30824003    0.12623017    0.09240000
opls_146-479    H    0.30910988    0.30339992    0.03777003    0.09350000
opls_146-480    H    0.79459987    0.74647994    0.60447987    0.09350000
opls_146-481    H    0.66414996    0.86283010    0.55874983    0.23800000
opls_146-482    H    0.65149998    0.80824003    0.62623017    0.09240000
opls_146-483    H    0.80910988    0.80339992    0.53777003    0.09350000
opls_146-484    H    0.70540013    0.74647994    0.39552013    0.09350000
opls_146-485    H    0.83585004    0.86283010    0.44125017    0.23790000
opls_146-486    H    0.84850002    0.80824003    0.37376983    0.09240000
opls_146-487    H    0.69089012    0.80339992    0.46222997    0.09350000
opls_146-488    H    0.20540013    0.24647994    0.89552013    0.09350000
opls_146-489    H    0.33585004    0.36283010    0.94125017    0.23800000
opls_146-490    H    0.34850002    0.30824003    0.87376983    0.09240000
opls_146-491    H    0.19089012    0.30339992    0.96222997    0.09350000
opls_146-492    H    0.04460005    0.14551994    0.50351988    0.09350000
opls_146-493    H    0.91415015    0.19124999    0.38717008    0.23800000
opls_146-494    H    0.90150016    0.12377001    0.44176016    0.09240000
opls_146-495    H    0.05911006    0.21223015    0.44659989    0.09350000
opls_146-496    H    0.54460005    0.64551994    0.00351988    0.09350000
opls_146-497    H    0.41415015    0.69124999    0.88717008    0.23800000
opls_146-498    H    0.40150016    0.62377001    0.94176016    0.09240000
opls_146-499    H    0.55911006    0.71223015    0.94659989    0.09350000
opls_146-500    H    0.45539995    0.85448006    0.00351988    0.09350000
opls_146-501    H    0.58584985    0.80875001    0.88717008    0.23800000
opls_146-502    H    0.59849984    0.87622999    0.94176016    0.09240000
opls_146-503    H    0.44088994    0.78776985    0.94659989    0.09350000
opls_146-504    H    0.95539995    0.35448006    0.50351988    0.09350000
opls_146-505    H    0.08584985    0.30875001    0.38717008    0.23800000
opls_146-506    H    0.09849984    0.37622999    0.44176016    0.09240000
opls_146-507    H    0.94088994    0.28776985    0.44659989    0.09350000
opls_146-508    H    0.54460005    0.35448006    0.49648012    0.09350000
opls_146-509    H    0.41415015    0.30875001    0.61282992    0.23800000
opls_146-510    H    0.40150016    0.37622999    0.55823984    0.09240000
opls_146-511    H    0.55911006    0.28776985    0.55340011    0.09350000
opls_146-512    H    0.04460005    0.85448006    0.99648012    0.09350000
opls_146-513    H    0.91415015    0.80875001    0.11282992    0.23800000
opls_146-514    H    0.90150016    0.87622999    0.05823984    0.09240000
opls_146-515    H    0.05911006    0.78776985    0.05340011    0.09350000
opls_146-516    H    0.95539995    0.64551994    0.99648012    0.09350000
opls_146-517    H    0.08584985    0.69124999    0.11282992    0.23790000
opls_146-518    H    0.09849984    0.62377001    0.05823984    0.09240000
opls_146-519    H    0.94088994    0.71223015    0.05340011    0.09350000
opls_146-520    H    0.45539995    0.14551994    0.49648012    0.09350000
opls_146-521    H    0.58584985    0.19124999    0.61282992    0.23800000
opls_146-522    H    0.59849984    0.12377001    0.55823984    0.09240000
opls_146-523    H    0.44088994    0.21223015    0.55340011    0.09350000
opls_146-524    H    0.14551994    0.50351988    0.04460005    0.09350000
opls_146-525    H    0.19124999    0.38717008    0.91415015    0.23800000
opls_146-526    H    0.12377001    0.44176016    0.90150016    0.09240000
opls_146-527    H    0.21223015    0.44659989    0.05911006    0.09350000
opls_146-528    H    0.64551994    0.00351988    0.54460005    0.09350000
opls_146-529    H    0.69124999    0.88717008    0.41415015    0.23800000
opls_146-530    H    0.62377001    0.94176016    0.40150016    0.09240000
opls_146-531    H    0.71223015    0.94659989    0.55911006    0.09350000
opls_146-532    H    0.85448006    0.00351988    0.45539995    0.09350000
opls_146-533    H    0.80875001    0.88717008    0.58584985    0.23790000
opls_146-534    H    0.87622999    0.94176016    0.59849984    0.09240000
opls_146-535    H    0.78776985    0.94659989    0.44088994    0.09340000
opls_146-536    H    0.35448006    0.50351988    0.95539995    0.09350000
opls_146-537    H    0.30875001    0.38717008    0.08584985    0.23800000
opls_146-538    H    0.37622999    0.44176016    0.09849984    0.09240000
opls_146-539    H    0.28776985    0.44659989    0.94088994    0.09350000
opls_146-540    H    0.35448006    0.49648012    0.54460005    0.09350000
opls_146-541    H    0.30875001    0.61282992    0.41415015    0.23800000
opls_146-542    H    0.37622999    0.55823984    0.40150016    0.09240000
opls_146-543    H    0.28776985    0.55340011    0.55911006    0.09350000
opls_146-544    H    0.85448006    0.99648012    0.04460005    0.09350000
opls_146-545    H    0.80875001    0.11282992    0.91415015    0.23800000
opls_146-546    H    0.87622999    0.05823984    0.90150016    0.09240000
opls_146-547    H    0.78776985    0.05340011    0.05911006    0.09350000
opls_146-548    H    0.64551994    0.99648012    0.95539995    0.09350000
opls_146-549    H    0.69124999    0.11282992    0.08584985    0.23800000
opls_146-550    H    0.62377001    0.05823984    0.09849984    0.09240000
opls_146-551    H    0.71223015    0.05340011    0.94088994    0.09350000
opls_146-552    H    0.14551994    0.49648012    0.45539995    0.09350000
opls_146-553    H    0.19124999    0.61282992    0.58584985    0.23790000
opls_146-554    H    0.12377001    0.55823984    0.59849984    0.09240000
opls_146-555    H    0.21223015    0.55340011    0.44088994    0.09350000
opls_146-556    H    0.50351988    0.04460005    0.14551994    0.09350000
opls_146-557    H    0.38717008    0.91415015    0.19124999    0.23800000
opls_146-558    H    0.44176016    0.90150016    0.12377001    0.09240000
opls_146-559    H    0.44659989    0.05911006    0.21223015    0.09350000
opls_146-560    H    0.00351988    0.54460005    0.64551994    0.09350000
opls_146-561    H    0.88717008    0.41415015    0.69124999    0.23800000
opls_146-562    H    0.94176016    0.40150016    0.62377001    0.09240000
opls_146-563    H    0.94659989    0.55911006    0.71223015    0.09350000
opls_146-564    H    0.00351988    0.45539995    0.85448006    0.09350000
opls_146-565    H    0.88717008    0.58584985    0.80875001    0.23800000
opls_146-566    H    0.94176016    0.59849984    0.87622999    0.09240000
opls_146-567    H    0.94659989    0.44088994    0.78776985    0.09340000
opls_146-568    H    0.50351988    0.95539995    0.35448006    0.09350000
opls_146-569    H    0.38717008    0.08584985    0.30875001    0.23800000
opls_146-570    H    0.44176016    0.09849984    0.37622999    0.09240000
opls_146-571    H    0.44659989    0.94088994    0.28776985    0.09350000
opls_146-572    H    0.49648012    0.54460005    0.35448006    0.09350000
opls_146-573    H    0.61282992    0.41415015    0.30875001    0.23800000
opls_146-574    H    0.55823984    0.40150016    0.37622999    0.09240000
opls_146-575    H    0.55340011    0.55911006    0.28776985    0.09350000
opls_146-576    H    0.99648012    0.04460005    0.85448006    0.09350000
opls_146-577    H    0.11282992    0.91415015    0.80875001    0.23790000
opls_146-578    H    0.05823984    0.90150016    0.87622999    0.09240000
opls_146-579    H    0.05340011    0.05911006    0.78776985    0.09350000
opls_146-580    H    0.99648012    0.95539995    0.64551994    0.09350000
opls_146-581    H    0.11282992    0.08584985    0.69124999    0.23800000
opls_146-582    H    0.05823984    0.09849984    0.62377001    0.09240000
opls_146-583    H    0.05340011    0.94088994    0.71223015    0.09350000
opls_146-584    H    0.49648012    0.45539995    0.14551994    0.09350000
opls_146-585    H    0.61282992    0.58584985    0.19124999    0.23800000
opls_146-586    H    0.55823984    0.59849984    0.12377001    0.09240000
opls_146-587    H    0.55340011    0.44088994    0.21223015    0.09350000
