#======================================================================
# Crystal Data Generated By AuToFF
#----------------------------------------------------------------------

data_AuToFF_phase_1

_cell_length_a                         70.2600
_cell_length_b                         70.2600
_cell_length_c                         3.4400
_cell_angle_alpha                      90.00
_cell_angle_beta                       90.00
_cell_angle_gamma                      120.00
_symmetry_space_group_name_H-M_alt     'P 1'
_symmetry_space_group_IT_number        1

loop_
_space_group_symop_operation_xyz
   'x, y, z'

loop_
   _atom_site_label
   _atom_site_type_symbol
   _atom_site_fract_x
   _atom_site_fract_y
   _atom_site_fract_z
   _atom_site_charge
opls_145-0    C    0.20849005    0.45737008    0.00000000    -0.21200000
opls_624-1    C    0.21046007    0.43894007    0.00000000    0.13850000
opls_700-2    C    0.24932006    0.48018010    0.00000000    0.01270000
opls_145-3    C    0.20909008    0.37144004    0.00000000    -0.17580000
opls_700-4    C    0.20026002    0.34846995    0.00000000    0.05990000
opls_700-5    C    0.21843002    0.49740003    0.00000000    0.06310000
opls_700-6    C    0.13795994    0.32942002    0.00000000    0.06240000
opls_145-7    C    0.23051009    0.52120008    0.00000000    -0.13650000
opls_145-8    C    0.22111001    0.53459007    0.00000000    -0.13800000
opls_700-9    C    0.19861001    0.52607000    0.00000000    0.05860000
opls_145-10    C    0.18553006    0.50347002    0.00000000    -0.12090000
opls_145-11    C    0.19491998    0.48982003    0.00000000    -0.11900000
opls_145-12    C    0.23833007    0.35167011    0.00000000    -0.13630000
opls_145-13    C    0.25190998    0.34242001    0.00000000    -0.12710000
opls_700-14    C    0.24294996    0.31965995    0.00000000    0.05040000
opls_145-15    C    0.22008010    0.30619009    0.00000000    -0.12340000
opls_145-16    C    0.20640995    0.31532005    0.00000000    -0.13620000
opls_145-17    C    0.37826006    0.58024003    0.00000000    0.17920000
opls_145-18    C    0.37896001    0.60069003    0.00000000    -0.17000000
opls_145-19    C    0.41858005    0.60032008    0.00000000    -0.19100000
opls_145-20    C    0.26169011    0.27757008    0.00000000    0.18370000
opls_145-21    C    0.24967002    0.25458996    0.00000000    -0.17440000
opls_145-22    C    0.29546995    0.27591001    0.00000000    -0.17750000
opls_627-23    C    0.20576005    0.40524996    0.00000000    0.25930000
opls_700-24    C    0.19565001    0.38091003    0.00000000    0.00060000
opls_145-25    C    0.17707006    0.33524003    0.00000000    -0.18280000
opls_624-26    C    0.22969997    0.43991004    0.00000000    0.13710000
opls_145-27    C    0.24883993    0.45948999    0.00000000    -0.19550000
opls_700-28    C    0.22700001    0.47962001    0.00000000    0.02600000
opls_700-29    C    0.16287000    0.34412002    0.00000000    0.05990000
opls_145-30    C    0.17280004    0.36724000    0.00000000    -0.14860000
opls_145-31    C    0.27370999    0.49926997    0.00000000    0.06000000
opls_700-32    C    0.21508001    0.33840995    0.00000000    0.06080000
opls_145-33    C    0.29331010    0.49742008    0.00000000    -0.12110000
opls_145-34    C    0.31465992    0.51612998    0.00000000    -0.13450000
opls_700-35    C    0.31723001    0.53721009    0.00000000    0.05380000
opls_145-36    C    0.29840997    0.53895003    0.00000000    -0.17720000
opls_145-37    C    0.27793004    0.52026002    0.00000000    -0.21030000
opls_145-38    C    0.12776998    0.30614999    0.00000000    -0.13640000
opls_145-39    C    0.10492996    0.29276000    0.00000000    -0.12720000
opls_700-40    C    0.09129008    0.30192003    0.00000000    0.05040000
opls_145-41    C    0.10089010    0.32481009    0.00000000    -0.12520000
opls_145-42    C    0.12373002    0.33831003    0.00000000    -0.13630000
opls_145-43    C    0.39880002    0.62022001    0.00000000    -0.17960000
opls_145-44    C    0.41863999    0.62035001    0.00000000    0.18590000
opls_145-45    C    0.39837994    0.58034997    0.00000000    -0.20260000
opls_145-46    C    0.26030997    0.24228006    0.00000000    -0.17560000
opls_145-47    C    0.28343995    0.25292003    0.00000000    0.18340000
opls_145-48    C    0.28481998    0.28822008    0.00000000    -0.17660000
opls_142-49    C    0.78044002    0.33843000    0.00000000    0.06670000
opls_142-50    C    0.81040005    0.45875996    0.00000000    0.06670000
opls_142-51    C    0.28733001    0.22012003    0.00000000    0.06700000
opls_142-52    C    0.25768005    0.31031996    0.00000000    0.06660000
opls_145-53    C    0.54263008    0.75112011    0.00000000    -0.21200000
opls_624-54    C    0.56106002    0.77151998    0.00000000    0.13850000
opls_700-55    C    0.51982011    0.76914008    0.00000000    0.01270000
opls_145-56    C    0.62855999    0.83765001    0.00000000    -0.17570000
opls_700-57    C    0.65153011    0.85179008    0.00000000    0.05990000
opls_700-58    C    0.50259998    0.72103001    0.00000000    0.06310000
opls_700-59    C    0.67058003    0.80854008    0.00000000    0.06240000
opls_145-60    C    0.47880009    0.70931011    0.00000000    -0.13650000
opls_145-61    C    0.46541000    0.68651998    0.00000000    -0.13790000
opls_700-62    C    0.47392997    0.67253998    0.00000000    0.05860000
opls_145-63    C    0.49653005    0.68206010    0.00000000    -0.12080000
opls_145-64    C    0.51017997    0.70510004    0.00000000    -0.11890000
opls_145-65    C    0.64833002    0.88666004    0.00000000    -0.13630000
opls_145-66    C    0.65758010    0.90949011    0.00000000    -0.12720000
opls_700-67    C    0.68034006    0.92329014    0.00000000    0.05050000
opls_145-68    C    0.69380993    0.91389000    0.00000000    -0.12350000
opls_145-69    C    0.68468007    0.89109000    0.00000000    -0.13620000
opls_145-70    C    0.41975997    0.79802008    0.00000000    0.17920000
opls_145-71    C    0.39931008    0.77827003    0.00000000    -0.18330000
opls_145-72    C    0.39967998    0.81826005    0.00000000    -0.19090000
opls_145-73    C    0.72243013    0.98412015    0.00000000    0.18370000
opls_145-74    C    0.74541011    0.99508011    0.00000000    -0.17440000
opls_145-75    C    0.72409002    0.01956006    0.00000000    -0.17730000
opls_627-76    C    0.59475007    0.80051010    0.00000000    0.25930000
opls_700-77    C    0.61909007    0.81474007    0.00000000    0.00060000
opls_145-78    C    0.66476001    0.84183001    0.00000000    -0.18280000
opls_624-79    C    0.56009003    0.78979009    0.00000000    0.13710000
opls_145-80    C    0.54051011    0.78935013    0.00000000    -0.19550000
opls_700-81    C    0.52038004    0.74738007    0.00000000    0.02600000
opls_700-82    C    0.65588005    0.81875013    0.00000000    0.06000000
opls_145-83    C    0.63275992    0.80555998    0.00000000    -0.14860000
opls_145-84    C    0.50073001    0.77444010    0.00000000    0.06000000
opls_700-85    C    0.66159008    0.87667005    0.00000000    0.06080000
opls_145-86    C    0.50258006    0.79588998    0.00000000    -0.12110000
opls_145-87    C    0.48387006    0.79853005    0.00000000    -0.13450000
opls_700-88    C    0.46278996    0.78002000    0.00000000    0.05380000
opls_145-89    C    0.46104998    0.75946005    0.00000000    -0.17710000
opls_145-90    C    0.47974006    0.75766998    0.00000000    -0.21030000
opls_145-91    C    0.69385005    0.82162012    0.00000000    -0.13650000
opls_145-92    C    0.70724000    0.81217001    0.00000000    -0.12710000
opls_700-93    C    0.69807997    0.78937002    0.00000000    0.05040000
opls_145-94    C    0.67519007    0.77608011    0.00000000    -0.12520000
opls_145-95    C    0.66168998    0.78542010    0.00000000    -0.13640000
opls_145-96    C    0.37978003    0.77857999    0.00000000    -0.17960000
opls_145-97    C    0.37965003    0.79829010    0.00000000    0.18590000
opls_145-98    C    0.41965013    0.81803013    0.00000000    -0.20270000
opls_145-99    C    0.75771995    0.01802999    0.00000000    -0.17560000
opls_145-100    C    0.74707997    0.03052002    0.00000000    0.18350000
opls_145-101    C    0.71178001    0.99660016    0.00000000    -0.17650000
opls_142-102    C    0.66157008    0.44201007    0.00000000    0.06670000
opls_142-103    C    0.54124003    0.35164003    0.00000000    0.06670000
opls_142-104    C    0.77987996    0.06720995    0.00000000    0.06700000
opls_142-105    C    0.68968002    0.94736005    0.00000000    0.06660000
opls_145-106    C    0.24888003    0.79151014    0.00000000    -0.21200000
opls_624-107    C    0.22847999    0.78954011    0.00000000    0.13850000
opls_700-108    C    0.23086006    0.75067998    0.00000000    0.01270000
opls_145-109    C    0.16235002    0.79091011    0.00000000    -0.17580000
opls_700-110    C    0.14821009    0.79974013    0.00000000    0.05990000
opls_700-111    C    0.27897009    0.78157012    0.00000000    0.06310000
opls_700-112    C    0.19145997    0.86204006    0.00000000    0.06240000
opls_145-113    C    0.29069013    0.76949013    0.00000000    -0.13650000
opls_145-114    C    0.31348007    0.77889011    0.00000000    -0.13800000
opls_700-115    C    0.32746002    0.80139001    0.00000000    0.05860000
opls_145-116    C    0.31793998    0.81447005    0.00000000    -0.12090000
opls_145-117    C    0.29489999    0.80508009    0.00000000    -0.11900000
opls_145-118    C    0.11333999    0.76167002    0.00000000    -0.13630000
opls_145-119    C    0.09051001    0.74809004    0.00000000    -0.12720000
opls_700-120    C    0.07671006    0.75705007    0.00000000    0.05040000
opls_145-121    C    0.08611005    0.77992007    0.00000000    -0.12350000
opls_145-122    C    0.10891006    0.79359011    0.00000000    -0.13620000
opls_145-123    C    0.20198005    0.62174006    0.00000000    0.17920000
opls_145-124    C    0.22172999    0.62104010    0.00000000    -0.18330000
opls_145-125    C    0.18174005    0.58142004    0.00000000    -0.19100000
opls_145-126    C    0.01588007    0.73831009    0.00000000    0.18380000
opls_145-127    C    0.00492010    0.75033009    0.00000000    -0.17440000
opls_145-128    C    0.98044011    0.70453009    0.00000000    -0.17750000
opls_627-129    C    0.19949011    0.79424010    0.00000000    0.25920000
opls_700-130    C    0.18526000    0.80435006    0.00000000    0.00060000
opls_145-131    C    0.15817002    0.82293013    0.00000000    -0.18280000
opls_624-132    C    0.21021008    0.77030003    0.00000000    0.13720000
opls_145-133    C    0.21065005    0.75116004    0.00000000    -0.19540000
opls_700-134    C    0.25262003    0.77300009    0.00000000    0.02600000
opls_700-135    C    0.18125004    0.83713002    0.00000000    0.05990000
opls_145-136    C    0.19444003    0.82720002    0.00000000    -0.14860000
opls_145-137    C    0.22556008    0.72629010    0.00000000    0.06000000
opls_700-138    C    0.12333005    0.78492000    0.00000000    0.06080000
opls_145-139    C    0.20411006    0.70669010    0.00000000    -0.12110000
opls_145-140    C    0.20147010    0.68534013    0.00000000    -0.13450000
opls_700-141    C    0.21997997    0.68277008    0.00000000    0.05380000
opls_145-142    C    0.24053999    0.70159009    0.00000000    -0.17720000
opls_145-143    C    0.24233005    0.72207000    0.00000000    -0.21030000
opls_145-144    C    0.17838004    0.87223006    0.00000000    -0.13650000
opls_145-145    C    0.18783004    0.89506999    0.00000000    -0.12720000
opls_700-146    C    0.21063004    0.90871012    0.00000000    0.05040000
opls_145-147    C    0.22391999    0.89911013    0.00000000    -0.12520000
opls_145-148    C    0.21458008    0.87627003    0.00000000    -0.13640000
opls_145-149    C    0.22141995    0.60119999    0.00000000    -0.17960000
opls_145-150    C    0.20171006    0.58136005    0.00000000    0.18590000
opls_145-151    C    0.18197001    0.60162007    0.00000000    -0.20270000
opls_145-152    C    0.98197002    0.73969011    0.00000000    -0.17560000
opls_145-153    C    0.96948003    0.71656011    0.00000000    0.18340000
opls_145-154    C    0.00340004    0.71518009    0.00000000    -0.17650000
opls_142-155    C    0.55798998    0.21956010    0.00000000    0.06670000
opls_142-156    C    0.64836006    0.18960000    0.00000000    0.06670000
opls_142-157    C    0.93279003    0.71267002    0.00000000    0.06700000
opls_142-158    C    0.05263993    0.74231999    0.00000000    0.06660000
opls_145-159    C    0.79151003    0.54263008    0.00000000    -0.21200000
opls_624-160    C    0.78954001    0.56106010    0.00000000    0.13850000
opls_700-161    C    0.75068003    0.51982006    0.00000000    0.01270000
opls_145-162    C    0.79091001    0.62856012    0.00000000    -0.17570000
opls_700-163    C    0.79973998    0.65153005    0.00000000    0.05990000
opls_700-164    C    0.78156998    0.50259997    0.00000000    0.06310000
opls_700-165    C    0.86204006    0.67057998    0.00000000    0.06240000
opls_145-166    C    0.76948999    0.47880008    0.00000000    -0.13650000
opls_145-167    C    0.77889007    0.46541009    0.00000000    -0.13800000
opls_700-168    C    0.80138999    0.47393000    0.00000000    0.05860000
opls_145-169    C    0.81446994    0.49652998    0.00000000    -0.12090000
opls_145-170    C    0.80508002    0.51017997    0.00000000    -0.11900000
opls_145-171    C    0.76167001    0.64833006    0.00000000    -0.13610000
opls_145-172    C    0.74809002    0.65757999    0.00000000    -0.12720000
opls_700-173    C    0.75705004    0.68034005    0.00000000    0.05040000
opls_145-174    C    0.77991998    0.69381007    0.00000000    -0.12350000
opls_145-175    C    0.79358999    0.68468012    0.00000000    -0.13620000
opls_145-176    C    0.62173994    0.41975997    0.00000000    0.17920000
opls_145-177    C    0.62103999    0.39930997    0.00000000    -0.17000000
opls_145-178    C    0.58142003    0.39968008    0.00000000    -0.19100000
opls_145-179    C    0.73830998    0.72243008    0.00000000    0.18370000
opls_145-180    C    0.75032998    0.74541004    0.00000000    -0.17440000
opls_145-181    C    0.70453005    0.72408999    0.00000000    -0.17740000
opls_627-182    C    0.79423995    0.59475004    0.00000000    0.25920000
opls_700-183    C    0.80435008    0.61909013    0.00000000    0.00060000
opls_145-184    C    0.82293002    0.66476013    0.00000000    -0.18280000
opls_624-185    C    0.77030011    0.56009012    0.00000000    0.13710000
opls_145-186    C    0.75116007    0.54051001    0.00000000    -0.19550000
opls_700-187    C    0.77299999    0.52037999    0.00000000    0.02600000
opls_700-188    C    0.83713000    0.65587998    0.00000000    0.05990000
opls_145-189    C    0.82719996    0.63276000    0.00000000    -0.14850000
opls_145-190    C    0.72629001    0.50073003    0.00000000    0.06000000
opls_700-191    C    0.78491999    0.66159005    0.00000000    0.06080000
opls_145-192    C    0.70668998    0.50258008    0.00000000    -0.12110000
opls_145-193    C    0.68534008    0.48387002    0.00000000    -0.13450000
opls_700-194    C    0.68277007    0.46279008    0.00000000    0.05380000
opls_145-195    C    0.70159003    0.46104997    0.00000000    -0.17720000
opls_145-196    C    0.72206996    0.47973998    0.00000000    -0.21030000
opls_145-197    C    0.87223002    0.69385001    0.00000000    -0.13650000
opls_145-198    C    0.89507004    0.70724000    0.00000000    -0.12720000
opls_700-199    C    0.90871001    0.69808013    0.00000000    0.05040000
opls_145-200    C    0.89910998    0.67519008    0.00000000    -0.12520000
opls_145-201    C    0.87626998    0.66168997    0.00000000    -0.13640000
opls_145-202    C    0.60119998    0.37977999    0.00000000    -0.17950000
opls_145-203    C    0.58136001    0.37964999    0.00000000    0.18600000
opls_145-204    C    0.60162006    0.41965003    0.00000000    -0.20260000
opls_145-205    C    0.73969011    0.75772011    0.00000000    -0.17560000
opls_145-206    C    0.71656013    0.74708013    0.00000000    0.18340000
opls_145-207    C    0.71518011    0.71178008    0.00000000    -0.17660000
opls_142-208    C    0.21955998    0.66157000    0.00000000    0.06670000
opls_142-209    C    0.18959995    0.54124004    0.00000000    0.06670000
opls_142-210    C    0.71267007    0.77988014    0.00000000    0.06700000
opls_142-211    C    0.74231995    0.68968004    0.00000000    0.06660000
opls_145-212    C    0.45737000    0.24888006    0.00000000    -0.21200000
opls_624-213    C    0.43893998    0.22848002    0.00000000    0.13850000
opls_700-214    C    0.48017997    0.23086009    0.00000000    0.01270000
opls_145-215    C    0.37144001    0.16234999    0.00000000    -0.17580000
opls_700-216    C    0.34846997    0.14821008    0.00000000    0.05990000
opls_700-217    C    0.49740002    0.27896999    0.00000000    0.06310000
opls_700-218    C    0.32942005    0.19146008    0.00000000    0.06240000
opls_145-219    C    0.52119999    0.29069005    0.00000000    -0.13650000
opls_145-220    C    0.53459000    0.31348002    0.00000000    -0.13800000
opls_700-221    C    0.52607003    0.32746002    0.00000000    0.05860000
opls_145-222    C    0.50347003    0.31794006    0.00000000    -0.12090000
opls_145-223    C    0.48982003    0.29489996    0.00000000    -0.11900000
opls_145-224    C    0.35166998    0.11333996    0.00000000    -0.13630000
opls_145-225    C    0.34241999    0.09051006    0.00000000    -0.12720000
opls_700-226    C    0.31966002    0.07671002    0.00000000    0.05040000
opls_145-227    C    0.30619007    0.08611000    0.00000000    -0.12350000
opls_145-228    C    0.31531993    0.10891000    0.00000000    -0.13620000
opls_145-229    C    0.58024011    0.20198008    0.00000000    0.17920000
opls_145-230    C    0.60068992    0.22172997    0.00000000    -0.18330000
opls_145-231    C    0.60032002    0.18173995    0.00000000    -0.19090000
opls_145-232    C    0.27756995    0.01588001    0.00000000    0.18370000
opls_145-233    C    0.25458997    0.00492005    0.00000000    -0.17430000
opls_145-234    C    0.27591006    0.98044010    0.00000000    -0.17750000
opls_627-235    C    0.40525001    0.19949006    0.00000000    0.25930000
opls_700-236    C    0.38091001    0.18526010    0.00000000    0.00060000
opls_145-237    C    0.33523999    0.15816999    0.00000000    -0.18280000
opls_624-238    C    0.43991005    0.21021008    0.00000000    0.13710000
opls_145-239    C    0.45948998    0.21065003    0.00000000    -0.19550000
opls_700-240    C    0.47962004    0.25262010    0.00000000    0.02600000
opls_700-241    C    0.34412004    0.18125003    0.00000000    0.05990000
opls_145-242    C    0.36724008    0.19444002    0.00000000    -0.14860000
opls_145-243    C    0.49927007    0.22556007    0.00000000    0.06000000
opls_700-244    C    0.33840992    0.12332995    0.00000000    0.06080000
opls_145-245    C    0.49741994    0.20411002    0.00000000    -0.12110000
opls_145-246    C    0.51612994    0.20146995    0.00000000    -0.13440000
opls_700-247    C    0.53721004    0.21998000    0.00000000    0.05380000
opls_145-248    C    0.53895002    0.24053995    0.00000000    -0.17720000
opls_145-249    C    0.52025994    0.24233002    0.00000000    -0.21030000
opls_145-250    C    0.30615003    0.17838005    0.00000000    -0.13650000
opls_145-251    C    0.29276000    0.18782999    0.00000000    -0.12720000
opls_700-252    C    0.30192003    0.21062998    0.00000000    0.05040000
opls_145-253    C    0.32481001    0.22392005    0.00000000    -0.12520000
opls_145-254    C    0.33831010    0.21458006    0.00000000    -0.13640000
opls_145-255    C    0.62021997    0.22142001    0.00000000    -0.17960000
opls_145-256    C    0.62035005    0.20171006    0.00000000    0.18590000
opls_145-257    C    0.58034995    0.18197004    0.00000000    -0.20270000
opls_145-258    C    0.24228005    0.98197001    0.00000000    -0.17560000
opls_145-259    C    0.25292012    0.96948014    0.00000000    0.18340000
opls_145-260    C    0.28822007    0.00340001    0.00000000    -0.17660000
opls_142-261    C    0.33843000    0.55799010    0.00000000    0.06670000
opls_142-262    C    0.45876005    0.64836013    0.00000000    0.06670000
opls_142-263    C    0.22012004    0.93279005    0.00000000    0.06700000
opls_142-264    C    0.31031998    0.05263995    0.00000000    0.06660000
opls_145-265    C    0.75112005    0.20849002    0.00000000    -0.21180000
opls_624-266    C    0.77152009    0.21046005    0.00000000    0.13850000
opls_700-267    C    0.76913994    0.24932002    0.00000000    0.01270000
opls_145-268    C    0.83765007    0.20909005    0.00000000    -0.17580000
opls_700-269    C    0.85178999    0.20026003    0.00000000    0.05990000
opls_700-270    C    0.72103000    0.21843005    0.00000000    0.06310000
opls_700-271    C    0.80854003    0.13795994    0.00000000    0.06240000
opls_145-272    C    0.70930995    0.23051003    0.00000000    -0.13640000
opls_145-273    C    0.68652001    0.22111005    0.00000000    -0.13800000
opls_700-274    C    0.67253998    0.19860999    0.00000000    0.05860000
opls_145-275    C    0.68206002    0.18552995    0.00000000    -0.12090000
opls_145-276    C    0.70510009    0.19492007    0.00000000    -0.11900000
opls_145-277    C    0.88666001    0.23832998    0.00000000    -0.13630000
opls_145-278    C    0.90948999    0.25190996    0.00000000    -0.12720000
opls_700-279    C    0.92329002    0.24295010    0.00000000    0.05040000
opls_145-280    C    0.91389003    0.22008009    0.00000000    -0.12350000
opls_145-281    C    0.89109002    0.20641005    0.00000000    -0.13620000
opls_145-282    C    0.79802003    0.37826011    0.00000000    0.17950000
opls_145-283    C    0.77827010    0.37896006    0.00000000    -0.18330000
opls_145-284    C    0.81825995    0.41857996    0.00000000    -0.19100000
opls_145-285    C    0.98412001    0.26169007    0.00000000    0.18370000
opls_145-286    C    0.99507998    0.24967007    0.00000000    -0.17440000
opls_145-287    C    0.01955997    0.29547008    0.00000000    -0.17750000
opls_627-288    C    0.80050998    0.20576006    0.00000000    0.25920000
opls_700-289    C    0.81474000    0.19564994    0.00000000    0.00060000
opls_145-290    C    0.84183007    0.17707004    0.00000000    -0.18280000
opls_624-291    C    0.78978992    0.22969997    0.00000000    0.13720000
opls_145-292    C    0.78934995    0.24883996    0.00000000    -0.19550000
opls_700-293    C    0.74738006    0.22700008    0.00000000    0.02600000
opls_700-294    C    0.81874996    0.16286998    0.00000000    0.05990000
opls_145-295    C    0.80555997    0.17279998    0.00000000    -0.14850000
opls_145-296    C    0.77444000    0.27371007    0.00000000    0.06000000
opls_700-297    C    0.87666995    0.21508000    0.00000000    0.06080000
opls_145-298    C    0.79589002    0.29331007    0.00000000    -0.12110000
opls_145-299    C    0.79852999    0.31466003    0.00000000    -0.13440000
opls_700-300    C    0.78002011    0.31723009    0.00000000    0.05380000
opls_145-301    C    0.75946009    0.29841008    0.00000000    -0.17710000
opls_145-302    C    0.75766995    0.27793000    0.00000000    -0.21030000
opls_145-303    C    0.82161996    0.12776994    0.00000000    -0.13650000
opls_145-304    C    0.81216996    0.10493001    0.00000000    -0.12720000
opls_700-305    C    0.78937004    0.09129005    0.00000000    0.05040000
opls_145-306    C    0.77608009    0.10089004    0.00000000    -0.12520000
opls_145-307    C    0.78541992    0.12372997    0.00000000    -0.13640000
opls_145-308    C    0.77858005    0.39880001    0.00000000    -0.17960000
opls_145-309    C    0.79828994    0.41863995    0.00000000    0.18590000
opls_145-310    C    0.81803007    0.39838010    0.00000000    -0.20270000
opls_145-311    C    0.01803006    0.26031005    0.00000000    -0.17560000
opls_145-312    C    0.03052006    0.28344005    0.00000000    0.18340000
opls_145-313    C    0.99660005    0.28482007    0.00000000    -0.17660000
opls_142-314    C    0.44201010    0.78044007    0.00000000    0.06670000
opls_142-315    C    0.35163994    0.81040000    0.00000000    0.06670000
opls_142-316    C    0.06720997    0.28732998    0.00000000    0.06700000
opls_142-317    C    0.94736007    0.25768001    0.00000000    0.06660000
opls_559-318    N    0.22696998    0.41844011    0.00000000    -0.42460000
opls_557-319    N    0.19355004    0.41665004    0.00000000    -0.41280000
opls_750-320    N    0.79820991    0.35768997    0.00000000    -0.34330000
opls_750-321    N    0.79627008    0.43788003    0.00000000    -0.31280000
opls_750-322    N    0.29545003    0.24129003    0.00000000    -0.35510000
opls_750-323    N    0.24966001    0.28917001    0.00000000    -0.35500000
opls_559-324    N    0.58156008    0.80853006    0.00000000    -0.42460000
opls_557-325    N    0.58334996    0.77690004    0.00000000    -0.41270000
opls_750-326    N    0.64231001    0.44052010    0.00000000    -0.34340000
opls_750-327    N    0.56212004    0.35839009    0.00000000    -0.31280000
opls_750-328    N    0.75870994    0.05416000    0.00000000    -0.35500000
opls_750-329    N    0.71082999    0.96049004    0.00000000    -0.35510000
opls_559-330    N    0.19147002    0.77303000    0.00000000    -0.42460000
opls_557-331    N    0.22310008    0.80645009    0.00000000    -0.41280000
opls_750-332    N    0.55948002    0.20179010    0.00000000    -0.34330000
opls_750-333    N    0.64160997    0.20373005    0.00000000    -0.31250000
opls_750-334    N    0.94584011    0.70455014    0.00000000    -0.35500000
opls_750-335    N    0.03951008    0.75034012    0.00000000    -0.35510000
opls_559-336    N    0.77303010    0.58156006    0.00000000    -0.42460000
opls_557-337    N    0.80645004    0.58335012    0.00000000    -0.41280000
opls_750-338    N    0.20179009    0.64231003    0.00000000    -0.34330000
opls_750-339    N    0.20372992    0.56211997    0.00000000    -0.31280000
opls_750-340    N    0.70455006    0.75871013    0.00000000    -0.35510000
opls_750-341    N    0.75033999    0.71082999    0.00000000    -0.35510000
opls_559-342    N    0.41843992    0.19146994    0.00000000    -0.42450000
opls_557-343    N    0.41665004    0.22309996    0.00000000    -0.41270000
opls_750-344    N    0.35769008    0.55948007    0.00000000    -0.34310000
opls_750-345    N    0.43788005    0.64161008    0.00000000    -0.31280000
opls_750-346    N    0.24129006    0.94584000    0.00000000    -0.35510000
opls_750-347    N    0.28917001    0.03950996    0.00000000    -0.35520000
opls_559-348    N    0.80852998    0.22697000    0.00000000    -0.42460000
opls_557-349    N    0.77690000    0.19355008    0.00000000    -0.41270000
opls_750-350    N    0.44052006    0.79821007    0.00000000    -0.34320000
opls_750-351    N    0.35839011    0.79627012    0.00000000    -0.31280000
opls_750-352    N    0.05415997    0.29545003    0.00000000    -0.35500000
opls_750-353    N    0.96049000    0.24966005    0.00000000    -0.35510000
opls_146-354    H    0.19157002    0.45228010    0.00000000    0.23390000
opls_146-355    H    0.22650995    0.38253000    0.00000000    0.10200000
opls_146-356    H    0.24712997    0.53332000    0.00000000    0.23400000
opls_146-357    H    0.23196004    0.55232999    0.00000000    0.10440000
opls_146-358    H    0.16780006    0.49616004    0.00000000    0.11050000
opls_146-359    H    0.18183999    0.47326012    0.00000000    0.22780000
opls_146-360    H    0.24673997    0.36931997    0.00000000    0.09220000
opls_146-361    H    0.26956998    0.35320001    0.00000000    0.10750000
opls_146-362    H    0.21262996    0.28846003    0.00000000    0.10870000
opls_146-363    H    0.18909997    0.30363006    0.00000000    0.09110000
opls_146-364    H    0.36459998    0.60242997    0.00000000    0.11140000
opls_146-365    H    0.43384003    0.60006009    0.00000000    0.11270000
opls_146-366    H    0.23188006    0.24615009    0.00000000    0.11070000
opls_146-367    H    0.31325999    0.28435004    0.00000000    0.11070000
opls_146-368    H    0.17000996    0.31792001    0.00000000    0.23490000
opls_146-369    H    0.26282002    0.45734001    0.00000000    0.22930000
opls_562-370    H    0.17664008    0.41060011    0.00000000    0.25450000
opls_146-371    H    0.16305996    0.37502001    0.00000000    0.23480000
opls_146-372    H    0.29345004    0.48223000    0.00000000    0.10200000
opls_146-373    H    0.32893998    0.51408008    0.00000000    0.11210000
opls_146-374    H    0.29936008    0.55483004    0.00000000    0.10980000
opls_146-375    H    0.26474998    0.52132005    0.00000000    0.23440000
opls_146-376    H    0.13680998    0.29753000    0.00000000    0.09110000
opls_146-377    H    0.09788005    0.27508006    0.00000000    0.10770000
opls_146-378    H    0.09074996    0.33240998    0.00000000    0.10770000
opls_146-379    H    0.12955002    0.35565996    0.00000000    0.09110000
opls_146-380    H    0.39876011    0.63562013    0.00000000    0.10870000
opls_146-381    H    0.39839004    0.56495002    0.00000000    0.11200000
opls_146-382    H    0.25022002    0.22460998    0.00000000    0.11080000
opls_146-383    H    0.29489006    0.30588999    0.00000000    0.11350000
opls_144-384    H    0.76446002    0.33693001    0.00000000    0.10010000
opls_144-385    H    0.82791004    0.46482009    0.00000000    0.09580000
opls_144-386    H    0.26980001    0.20897008    0.00000000    0.11060000
opls_144-387    H    0.27520001    0.32154008    0.00000000    0.10910000
opls_146-388    H    0.54772005    0.73929009    0.00000000    0.23390000
opls_146-389    H    0.61746993    0.84397999    0.00000000    0.10200000
opls_146-390    H    0.46668003    0.71381009    0.00000000    0.23400000
opls_146-391    H    0.44767000    0.67963007    0.00000000    0.10390000
opls_146-392    H    0.50384008    0.67164002    0.00000000    0.11050000
opls_146-393    H    0.52674009    0.70858009    0.00000000    0.22770000
opls_146-394    H    0.63068003    0.87742013    0.00000000    0.09220000
opls_146-395    H    0.64680000    0.91636999    0.00000000    0.10750000
opls_146-396    H    0.71154005    0.92417006    0.00000000    0.10870000
opls_146-397    H    0.69637007    0.88547000    0.00000000    0.09110000
opls_146-398    H    0.39757012    0.76217013    0.00000000    0.11140000
opls_146-399    H    0.39994003    0.83378014    0.00000000    0.11270000
opls_146-400    H    0.75385010    0.98573010    0.00000000    0.11070000
opls_146-401    H    0.71565003    0.02891008    0.00000000    0.11070000
opls_146-402    H    0.68208002    0.85209001    0.00000000    0.23490000
opls_146-403    H    0.54266007    0.80548011    0.00000000    0.22930000
opls_562-404    H    0.58940002    0.76604000    0.00000000    0.25450000
opls_146-405    H    0.62498007    0.78804012    0.00000000    0.23470000
opls_146-406    H    0.51777002    0.81122009    0.00000000    0.10200000
opls_146-407    H    0.48592006    0.81486004    0.00000000    0.11210000
opls_146-408    H    0.44517013    0.74453013    0.00000000    0.10980000
opls_146-409    H    0.47867998    0.74342999    0.00000000    0.23430000
opls_146-410    H    0.70247006    0.83928000    0.00000000    0.09110000
opls_146-411    H    0.72492013    0.82280013    0.00000000    0.10770000
opls_146-412    H    0.66759002    0.75834002    0.00000000    0.10770000
opls_146-413    H    0.64433997    0.77389003    0.00000000    0.09110000
opls_146-414    H    0.36438004    0.76314010    0.00000000    0.10870000
opls_146-415    H    0.43505011    0.83344010    0.00000000    0.11200000
opls_146-416    H    0.77538997    0.02561000    0.00000000    0.11080000
opls_146-417    H    0.69411007    0.98900010    0.00000000    0.11350000
opls_144-418    H    0.66306999    0.42752996    0.00000000    0.10010000
opls_144-419    H    0.53518011    0.36309007    0.00000000    0.09580000
opls_144-420    H    0.79103001    0.06083001    0.00000000    0.11060000
opls_144-421    H    0.67846001    0.95366012    0.00000000    0.10900000
opls_146-422    H    0.26071009    0.80843014    0.00000000    0.23400000
opls_146-423    H    0.15601998    0.77349001    0.00000000    0.10200000
opls_146-424    H    0.28619009    0.75287007    0.00000000    0.23410000
opls_146-425    H    0.32037004    0.76804010    0.00000000    0.10400000
opls_146-426    H    0.32836009    0.83220011    0.00000000    0.11050000
opls_146-427    H    0.29142008    0.81816012    0.00000000    0.22770000
opls_146-428    H    0.12258008    0.75326007    0.00000000    0.09220000
opls_146-429    H    0.08363003    0.73042999    0.00000000    0.10750000
opls_146-430    H    0.07583007    0.78737008    0.00000000    0.10870000
opls_146-431    H    0.11453004    0.81090010    0.00000000    0.09110000
opls_146-432    H    0.23782998    0.63540007    0.00000000    0.11140000
opls_146-433    H    0.16622010    0.56616011    0.00000000    0.11280000
opls_146-434    H    0.01427000    0.76812014    0.00000000    0.11070000
opls_146-435    H    0.97109006    0.68674004    0.00000000    0.11070000
opls_146-436    H    0.14791010    0.82999014    0.00000000    0.23480000
opls_146-437    H    0.19452000    0.73718005    0.00000000    0.22940000
opls_562-438    H    0.23395999    0.82336006    0.00000000    0.25450000
opls_146-439    H    0.21196005    0.83694003    0.00000000    0.23470000
opls_146-440    H    0.18878002    0.70655007    0.00000000    0.10200000
opls_146-441    H    0.18514004    0.67106004    0.00000000    0.11210000
opls_146-442    H    0.25547001    0.70064000    0.00000000    0.10980000
opls_146-443    H    0.25657012    0.73525012    0.00000000    0.23430000
opls_146-444    H    0.16071996    0.86319000    0.00000000    0.09110000
opls_146-445    H    0.17720012    0.90212014    0.00000000    0.10770000
opls_146-446    H    0.24166001    0.90925000    0.00000000    0.10770000
opls_146-447    H    0.22611001    0.87045002    0.00000000    0.09110000
opls_146-448    H    0.23686001    0.60124010    0.00000000    0.10870000
opls_146-449    H    0.16656007    0.60161004    0.00000000    0.11210000
opls_146-450    H    0.97439001    0.74978002    0.00000000    0.11080000
opls_146-451    H    0.01100010    0.70511007    0.00000000    0.11350000
opls_144-452    H    0.57246999    0.23554003    0.00000000    0.10010000
opls_144-453    H    0.63690993    0.17209000    0.00000000    0.09580000
opls_144-454    H    0.93917006    0.73020007    0.00000000    0.11060000
opls_144-455    H    0.04634000    0.72480013    0.00000000    0.10900000
opls_146-456    H    0.80843006    0.54772007    0.00000000    0.23390000
opls_146-457    H    0.77349005    0.61747000    0.00000000    0.10210000
opls_146-458    H    0.75287003    0.46668000    0.00000000    0.23400000
opls_146-459    H    0.76803996    0.44767001    0.00000000    0.10390000
opls_146-460    H    0.83219994    0.50383996    0.00000000    0.11060000
opls_146-461    H    0.81816009    0.52674005    0.00000000    0.22770000
opls_146-462    H    0.75326003    0.63068003    0.00000000    0.09220000
opls_146-463    H    0.73043002    0.64679999    0.00000000    0.10750000
opls_146-464    H    0.78737013    0.71154014    0.00000000    0.10870000
opls_146-465    H    0.81090011    0.69637011    0.00000000    0.09110000
opls_146-466    H    0.63540002    0.39757003    0.00000000    0.11140000
opls_146-467    H    0.56616005    0.39994008    0.00000000    0.11270000
opls_146-468    H    0.76812003    0.75385007    0.00000000    0.11070000
opls_146-469    H    0.68674009    0.71565012    0.00000000    0.11070000
opls_146-470    H    0.82999004    0.68207999    0.00000000    0.23480000
opls_146-471    H    0.73717998    0.54265999    0.00000000    0.22930000
opls_562-472    H    0.82336001    0.58940006    0.00000000    0.25450000
opls_146-473    H    0.83694004    0.62497999    0.00000000    0.23470000
opls_146-474    H    0.70654996    0.51777000    0.00000000    0.10200000
opls_146-475    H    0.67106010    0.48592008    0.00000000    0.11210000
opls_146-476    H    0.70063992    0.44516996    0.00000000    0.10980000
opls_146-477    H    0.73525010    0.47868011    0.00000000    0.23440000
opls_146-478    H    0.86319002    0.70247000    0.00000000    0.09110000
opls_146-479    H    0.90212003    0.72492010    0.00000000    0.10770000
opls_146-480    H    0.90925004    0.66759002    0.00000000    0.10770000
opls_146-481    H    0.87044998    0.64434004    0.00000000    0.09110000
opls_146-482    H    0.60123997    0.36438003    0.00000000    0.10870000
opls_146-483    H    0.60160996    0.43504998    0.00000000    0.11200000
opls_146-484    H    0.74977998    0.77539002    0.00000000    0.11080000
opls_146-485    H    0.70510994    0.69411001    0.00000000    0.11350000
opls_144-486    H    0.23553998    0.66306999    0.00000000    0.10010000
opls_144-487    H    0.17209004    0.53518008    0.00000000    0.09580000
opls_144-488    H    0.73020007    0.79103008    0.00000000    0.11060000
opls_144-489    H    0.72480007    0.67846008    0.00000000    0.10900000
opls_146-490    H    0.45228003    0.26071007    0.00000000    0.23390000
opls_146-491    H    0.38253007    0.15602001    0.00000000    0.10200000
opls_146-492    H    0.53332006    0.28619007    0.00000000    0.23410000
opls_146-493    H    0.55233008    0.32037010    0.00000000    0.10390000
opls_146-494    H    0.49615992    0.32835998    0.00000000    0.11050000
opls_146-495    H    0.47326000    0.29142008    0.00000000    0.22770000
opls_146-496    H    0.36932005    0.12258003    0.00000000    0.09220000
opls_146-497    H    0.35320000    0.08363001    0.00000000    0.10750000
opls_146-498    H    0.28845995    0.07582994    0.00000000    0.10870000
opls_146-499    H    0.30362993    0.11453000    0.00000000    0.09110000
opls_146-500    H    0.60242996    0.23783004    0.00000000    0.11140000
opls_146-501    H    0.60006006    0.16622003    0.00000000    0.11270000
opls_146-502    H    0.24614998    0.01427007    0.00000000    0.11070000
opls_146-503    H    0.28435005    0.97109008    0.00000000    0.11070000
opls_146-504    H    0.31791998    0.14790999    0.00000000    0.23480000
opls_146-505    H    0.45734002    0.19452005    0.00000000    0.22930000
opls_562-506    H    0.41059998    0.23396000    0.00000000    0.25450000
opls_146-507    H    0.37502002    0.21196004    0.00000000    0.23470000
opls_146-508    H    0.48223006    0.18878008    0.00000000    0.10200000
opls_146-509    H    0.51407994    0.18513996    0.00000000    0.11210000
opls_146-510    H    0.55482995    0.25547004    0.00000000    0.10980000
opls_146-511    H    0.52132002    0.25657001    0.00000000    0.23440000
opls_146-512    H    0.29752994    0.16072000    0.00000000    0.09110000
opls_146-513    H    0.27507995    0.17720004    0.00000000    0.10780000
opls_146-514    H    0.33240998    0.24165998    0.00000000    0.10770000
opls_146-515    H    0.35566003    0.22610997    0.00000000    0.09110000
opls_146-516    H    0.63562004    0.23686006    0.00000000    0.10870000
opls_146-517    H    0.56494997    0.16656006    0.00000000    0.11200000
opls_146-518    H    0.22461003    0.97439000    0.00000000    0.11080000
opls_146-519    H    0.30589001    0.01100006    0.00000000    0.11350000
opls_144-520    H    0.33693001    0.57247004    0.00000000    0.10010000
opls_144-521    H    0.46481997    0.63691009    0.00000000    0.09580000
opls_144-522    H    0.20897008    0.93917015    0.00000000    0.11060000
opls_144-523    H    0.32154008    0.04634005    0.00000000    0.10900000
opls_146-524    H    0.73929000    0.19157003    0.00000000    0.23410000
opls_146-525    H    0.84398002    0.22650999    0.00000000    0.10200000
opls_146-526    H    0.71380999    0.24713009    0.00000000    0.23400000
opls_146-527    H    0.67963005    0.23196006    0.00000000    0.10390000
opls_146-528    H    0.67163999    0.16780006    0.00000000    0.11050000
opls_146-529    H    0.70858000    0.18184004    0.00000000    0.22770000
opls_146-530    H    0.87742001    0.24674010    0.00000000    0.09220000
opls_146-531    H    0.91636997    0.26957001    0.00000000    0.10750000
opls_146-532    H    0.92417001    0.21263008    0.00000000    0.10870000
opls_146-533    H    0.88547004    0.18910006    0.00000000    0.09110000
opls_146-534    H    0.76217010    0.36460009    0.00000000    0.11140000
opls_146-535    H    0.83377998    0.43384006    0.00000000    0.11270000
opls_146-536    H    0.98573008    0.23188003    0.00000000    0.11080000
opls_146-537    H    0.02890994    0.31325996    0.00000000    0.11070000
opls_146-538    H    0.85208998    0.17001003    0.00000000    0.23480000
opls_146-539    H    0.80548000    0.26281995    0.00000000    0.22930000
opls_562-540    H    0.76604001    0.17663994    0.00000000    0.25450000
opls_146-541    H    0.78803995    0.16305997    0.00000000    0.23490000
opls_146-542    H    0.81122006    0.29345009    0.00000000    0.10210000
opls_146-543    H    0.81485996    0.32893996    0.00000000    0.11210000
opls_146-544    H    0.74452999    0.29936000    0.00000000    0.10980000
opls_146-545    H    0.74342996    0.26475004    0.00000000    0.23430000
opls_146-546    H    0.83928004    0.13681000    0.00000000    0.09110000
opls_146-547    H    0.82279996    0.09788002    0.00000000    0.10770000
opls_146-548    H    0.75833999    0.09075000    0.00000000    0.10770000
opls_146-549    H    0.77388999    0.12954998    0.00000000    0.09120000
opls_146-550    H    0.76314007    0.39876007    0.00000000    0.10870000
opls_146-551    H    0.83343993    0.39838996    0.00000000    0.11200000
opls_146-552    H    0.02560999    0.25021998    0.00000000    0.11080000
opls_146-553    H    0.98899999    0.29489010    0.00000000    0.11350000
opls_144-554    H    0.42753010    0.76446014    0.00000000    0.10010000
opls_144-555    H    0.36309007    0.82791000    0.00000000    0.09580000
opls_144-556    H    0.06083002    0.26980009    0.00000000    0.11060000
opls_144-557    H    0.95366008    0.27520003    0.00000000    0.10900000
