#======================================================================
# Crystal Data Generated By AuToFF
#----------------------------------------------------------------------

data_AuToFF_phase_1

_cell_length_a                         30.0700
_cell_length_b                         32.3500
_cell_length_c                         12.9600
_cell_angle_alpha                      92.62
_cell_angle_beta                       88.24
_cell_angle_gamma                      117.73
_symmetry_space_group_name_H-M_alt     'P 1'
_symmetry_space_group_IT_number        1

loop_
_space_group_symop_operation_xyz
   'x, y, z'

loop_
   _atom_site_label
   _atom_site_type_symbol
   _atom_site_fract_x
   _atom_site_fract_y
   _atom_site_fract_z
   _atom_site_charge
opls_515-0    C    0.45884001    0.51375985    0.82922065    -0.04790000
opls_515-1    C    0.48503021    0.94343005    0.82223995    -0.06100000
opls_515-2    C    0.05658004    0.54159979    0.82219052    -0.05820000
opls_137-3    C    0.45547020    0.46835994    0.87324063    0.00180000
opls_137-4    C    0.53212994    0.98590983    0.87026050    -0.01450000
opls_137-5    C    0.01414984    0.54630977    0.87016008    -0.01210000
opls_137-6    C    0.53127006    0.51650978    0.87181004    0.00180000
opls_137-7    C    0.48257006    0.01506999    0.86876038    -0.01440000
opls_137-8    C    0.98489002    0.46749996    0.86862057    -0.01400000
opls_515-9    C    0.51306014    0.54871981    0.83010047    -0.05140000
opls_515-10    C    0.45015006    0.96325984    0.82291045    -0.04640000
opls_515-11    C    0.03670999    0.48689006    0.82286024    -0.04900000
opls_136-12    C    0.49495992    0.48630000    0.95318063    -0.19920000
opls_136-13    C    0.51351991    0.00820013    0.95013020    -0.17760000
opls_136-14    C    0.99178021    0.50536002    0.95025997    -0.18120000
opls_515-15    C    0.47106018    0.44582007    0.78914019    -0.05240000
opls_515-16    C    0.55420001    0.02463001    0.78146042    -0.05490000
opls_515-17    C    0.97544007    0.52966984    0.78137004    -0.05690000
opls_515-18    C    0.52551004    0.48092978    0.78682050    -0.04750000
opls_515-19    C    0.51924020    0.04459015    0.77930990    -0.03500000
opls_515-20    C    0.95539997    0.47473984    0.77922030    -0.05820000
opls_145-21    C    0.48083989    0.40625995    0.81577063    0.03700000
opls_145-22    C    0.59373986    0.07458986    0.81398008    0.00860000
opls_700-23    C    0.92553005    0.51934979    0.81393064    0.00350000
opls_145-24    C    0.46016989    0.35833999    0.77845016    0.09580000
opls_700-25    C    0.64191015    0.10254994    0.77904032    0.10180000
opls_700-26    C    0.89764016    0.53964985    0.77903027    0.12020000
opls_145-27    C    0.49235998    0.34126997    0.75251029    -0.20990000
opls_145-28    C    0.65889989    0.15194997    0.75487015    -0.21710000
opls_145-29    C    0.84823021    0.50732011    0.75486010    -0.21140000
opls_916-30    C    0.54317993    0.37445999    0.74754030    0.20890000
opls_916-31    C    0.62575998    0.16962991    0.74941042    0.18540000
opls_916-32    C    0.83045001    0.45648001    0.74939034    0.18440000
opls_145-33    C    0.56159011    0.42415010    0.76953060    -0.19900000
opls_145-34    C    0.57591997    0.13846982    0.76998017    -0.22750000
opls_145-35    C    0.86153016    0.43770985    0.76994000    -0.21140000
opls_145-36    C    0.52974019    0.43791996    0.81121005    0.04780000
opls_145-37    C    0.56154985    0.09259993    0.81057045    0.03750000
opls_700-38    C    0.90743004    0.46912986    0.81050016    0.04730000
opls_145-39    C    0.42197999    0.56510994    0.88767012    -0.19860000
opls_145-40    C    0.43438020    0.85574984    0.88890992    -0.19900000
opls_145-41    C    0.14423997    0.57859977    0.88890065    -0.19910000
opls_145-42    C    0.45508997    0.54884978    0.89851001    0.01620000
opls_145-43    C    0.45121995    0.90523976    0.89781016    0.05980000
opls_700-44    C    0.09474026    0.54596004    0.89780012    0.04090000
opls_145-45    C    0.50430986    0.58065980    0.90133025    0.03740000
opls_145-46    C    0.41881007    0.92330998    0.89996995    0.04200000
opls_145-47    C    0.07665021    0.49548001    0.89996068    0.04800000
opls_145-48    C    0.52332024    0.63120008    0.89405062    0.09610000
opls_700-49    C    0.36831018    0.89160002    0.89553064    0.10270000
opls_145-50    C    0.10835023    0.47667003    0.89549048    0.10190000
opls_145-51    C    0.49025027    0.64875008    0.89098010    -0.24100000
opls_145-52    C    0.35086997    0.84100991    0.89423060    -0.22400000
opls_145-53    C    0.15894988    0.50981985    0.89406066    -0.21710000
opls_916-54    C    0.43945001    0.61547989    0.88520058    0.18500000
opls_916-55    C    0.38394017    0.82322997    0.88801000    0.21290000
opls_916-56    C    0.17673996    0.56065983    0.88785011    0.18340000
opls_148-57    C    0.57722011    0.66565008    0.88660027    -0.45850000
opls_148-58    C    0.33363011    0.91078975    0.88851056    -0.45860000
opls_148-59    C    0.08914011    0.42279996    0.88855999    -0.45850000
opls_148-60    C    0.40600992    0.32685001    0.76577028    -0.45860000
opls_148-61    C    0.67369007    0.08023996    0.76596031    -0.45860000
opls_148-62    C    0.92005012    0.59374980    0.76599043    -0.45850000
opls_145-63    C    0.37997010    0.66858996    0.73310000    -0.15740000
opls_145-64    C    0.33098013    0.71140987    0.73455994    -0.14240000
opls_700-65    C    0.28823029    0.61965005    0.73348005    -0.20200000
opls_280-66    C    0.37803013    0.71341008    0.71279057    0.30070000
opls_280-67    C    0.28626006    0.66478009    0.71268011    0.17230000
opls_280-68    C    0.33483983    0.62164977    0.71105022    0.30150000
opls_142-69    C    0.41505994    0.67100991    0.79695050    0.06520000
opls_142-70    C    0.32826006    0.74364002    0.79933043    0.11250000
opls_142-71    C    0.25613997    0.58462983    0.79832006    0.05270000
opls_145-72    C    0.61692994    0.32645981    0.82117010    -0.10460000
opls_145-73    C    0.67358009    0.29151002    0.82251031    -0.14100000
opls_700-74    C    0.70851005    0.38309008    0.82253040    -0.23790000
opls_280-75    C    0.62409022    0.28452009    0.83899995    0.33950000
opls_280-76    C    0.71544012    0.34063988    0.84043054    0.17230000
opls_280-77    C    0.65932012    0.37587995    0.83916062    0.30180000
opls_142-78    C    0.57637995    0.31964981    0.77228055    0.04610000
opls_142-79    C    0.68058017    0.25769005    0.77462032    0.10540000
opls_142-80    C    0.74242014    0.42368980    0.77415993    0.04740000
opls_515-81    C    0.79212999    0.18041006    0.49657995    -0.04790000
opls_515-82    C    0.81962002    0.61175986    0.49650039    -0.05230000
opls_515-83    C    0.38823989    0.20777001    0.49604000    -0.05230000
opls_137-84    C    0.78882999    0.13501994    0.54047016    0.00180000
opls_137-85    C    0.86500020    0.65384005    0.54043000    0.00170000
opls_137-86    C    0.34619994    0.21113981    0.54001982    0.00130000
opls_137-87    C    0.86461016    0.18321009    0.53881015    0.00180000
opls_137-88    C    0.81681009    0.68142993    0.53879007    0.00420000
opls_137-89    C    0.31856982    0.13534987    0.53866030    0.00180000
opls_515-90    C    0.84633990    0.21537992    0.49725044    -0.05140000
opls_515-91    C    0.78464009    0.63099996    0.49718015    -0.04710000
opls_515-92    C    0.36897995    0.15354988    0.49697004    -0.05230000
opls_136-93    C    0.82837012    0.15296997    0.62027034    -0.19920000
opls_136-94    C    0.84704000    0.67540999    0.62024022    -0.19750000
opls_136-95    C    0.32465995    0.17167988    0.61998994    -0.19920000
opls_515-96    C    0.80438006    0.11250001    0.45621986    -0.05240000
opls_515-97    C    0.88753010    0.69192978    0.45620982    -0.04840000
opls_515-98    C    0.30806993    0.19553999    0.45591010    -0.04790000
opls_515-99    C    0.85882002    0.14763993    0.45378044    -0.04750000
opls_515-100    C    0.85237996    0.71122993    0.45378044    -0.05050000
opls_515-101    C    0.28874005    0.14108981    0.45364990    -0.05250000
opls_145-102    C    0.81426010    0.07299008    0.48267032    0.03700000
opls_145-103    C    0.92703988    0.74131974    0.48269040    0.00510000
opls_700-104    C    0.25871007    0.18571003    0.48250038    0.00440000
opls_145-105    C    0.79364996    0.02506987    0.44529037    0.09570000
opls_700-106    C    0.97495015    0.76861988    0.44530041    0.10390000
opls_700-107    C    0.23141001    0.20632001    0.44511039    0.12230000
opls_145-108    C    0.82589010    0.00806992    0.41930029    -0.20990000
opls_145-109    C    0.99195006    0.81784979    0.41928021    -0.21710000
opls_145-110    C    0.18215999    0.17408980    0.41917979    -0.21120000
opls_916-111    C    0.87669998    0.04131983    0.41434035    0.20620000
opls_916-112    C    0.95870989    0.83541973    0.41432027    0.18480000
opls_916-113    C    0.16457012    0.12328014    0.41430018    0.18150000
opls_145-114    C    0.89505004    0.09099012    0.43638008    -0.19900000
opls_145-115    C    0.90904017    0.80410005    0.43639012    -0.24050000
opls_145-116    C    0.19587991    0.10490994    0.43642025    -0.20690000
opls_145-117    C    0.86315006    0.10468991    0.47811051    0.04780000
opls_145-118    C    0.89534000    0.75850007    0.47812982    0.04770000
opls_700-119    C    0.24150008    0.13682015    0.47806030    0.06030000
opls_145-120    C    0.75533001    0.23179992    0.55544037    -0.19750000
opls_145-121    C    0.76823019    0.52355996    0.55519010    -0.20710000
opls_145-122    C    0.47646009    0.24457011    0.55456982    -0.20550000
opls_145-123    C    0.78845014    0.21551012    0.56599986    0.01620000
opls_145-124    C    0.78450018    0.57294996    0.56587008    0.04770000
opls_700-125    C    0.42707007    0.21149001    0.56536026    0.05780000
opls_145-126    C    0.83767012    0.24732990    0.56857986    0.03720000
opls_145-127    C    0.75268020    0.59035009    0.56847017    -0.00160000
opls_145-128    C    0.40964004    0.16225992    0.56821990    0.00050000
opls_145-129    C    0.85668991    0.29786985    0.56128015    0.10310000
opls_700-130    C    0.70214986    0.55883982    0.56107004    0.10220000
opls_145-131    C    0.44112994    0.14320981    0.56101983    0.10250000
opls_145-132    C    0.82363007    0.31541987    0.55844986    -0.23150000
opls_145-133    C    0.68460014    0.50821999    0.55805050    -0.22690000
opls_145-134    C    0.49176009    0.17626001    0.55804046    -0.21700000
opls_916-135    C    0.77281988    0.28216991    0.55292989    0.18520000
opls_916-136    C    0.71785994    0.49066978    0.55250040    0.21350000
opls_916-137    C    0.50933002    0.22705993    0.55225013    0.18490000
opls_148-138    C    0.91059012    0.33229004    0.55343044    -0.45860000
opls_148-139    C    0.66772006    0.57831010    0.55334006    -0.45860000
opls_148-140    C    0.42163998    0.08930003    0.55353009    -0.45850000
opls_148-141    C    0.73951014    0.99354002    0.43252012    -0.45860000
opls_148-142    C    0.00648004    0.74599985    0.43255024    -0.45860000
opls_148-143    C    0.25403003    0.26046991    0.43231001    -0.45860000
opls_145-144    C    0.71351010    0.33508001    0.39985988    -0.15700000
opls_145-145    C    0.66494980    0.37830980    0.39965981    -0.14170000
opls_700-146    C    0.62170999    0.28649980    0.39963046    -0.21170000
opls_280-147    C    0.71184003    0.37994004    0.37823032    0.30070000
opls_280-148    C    0.62008016    0.33177006    0.37819015    0.24200000
opls_280-149    C    0.66827022    0.28818001    0.37828980    0.30150000
opls_142-150    C    0.74850986    0.33759990    0.46416998    0.06510000
opls_142-151    C    0.66246005    0.41089982    0.46368025    0.10380000
opls_142-152    C    0.58910998    0.25140988    0.46360995    0.04620000
opls_145-153    C    0.95070016    0.99309989    0.48616028    -0.11160000
opls_145-154    C    0.00689998    0.95761978    0.48614020    -0.14000000
opls_700-155    C    0.04238992    0.04930006    0.48616028    -0.22130000
opls_280-156    C    0.95759010    0.95096990    0.50345018    0.25210000
opls_280-157    C    0.04903011    0.00664008    0.50348030    0.31470000
opls_280-158    C    0.99335988    0.04240989    0.50349035    0.30160000
opls_142-159    C    0.90997998    0.98651988    0.43850048    0.04560000
opls_142-160    C    0.01349007    0.92348992    0.43846031    0.12740000
opls_142-161    C    0.07650997    0.09001008    0.43846031    0.04740000
opls_515-162    C    0.12556998    0.84726997    0.16294973    -0.04790000
opls_515-163    C    0.15288020    0.27842005    0.16272031    -0.05230000
opls_515-164    C    0.72172026    0.87444002    0.16297986    -0.05230000
opls_137-165    C    0.12221987    0.80190978    0.20715975    0.00180000
opls_137-166    C    0.19829004    0.32045984    0.20670013    0.00170000
opls_137-167    C    0.67968002    0.87775979    0.20714970    0.00130000
opls_137-168    C    0.19801011    0.85006982    0.20555999    0.00180000
opls_137-169    C    0.15012002    0.34808981    0.20535992    0.00420000
opls_137-170    C    0.65207004    0.80197000    0.20543022    0.00180000
opls_515-171    C    0.17978025    0.88222991    0.16371987    -0.05140000
opls_515-172    C    0.11792014    0.29767988    0.16365035    -0.04730000
opls_515-173    C    0.70247998    0.82022981    0.16367971    -0.05230000
opls_136-174    C    0.16173003    0.81991993    0.28705030    -0.19920000
opls_136-175    C    0.18035985    0.34198990    0.28668030    -0.19760000
opls_136-176    C    0.65815992    0.83821976    0.28695993    -0.19920000
opls_515-177    C    0.13777998    0.77927981    0.12318984    -0.05240000
opls_515-178    C    0.22081008    0.35859988    0.12259042    -0.04840000
opls_515-179    C    0.64153008    0.86221993    0.12312032    -0.04790000
opls_515-180    C    0.19222992    0.81441971    0.12074965    -0.04750000
opls_515-181    C    0.18568991    0.37792000    0.12036034    -0.05050000
opls_515-182    C    0.62222003    0.80777975    0.12056967    -0.05250000
opls_145-183    C    0.14763993    0.73978973    0.15004971    0.03700000
opls_145-184    C    0.26035022    0.40795998    0.14918996    0.00510000
opls_700-185    C    0.59217012    0.85234987    0.14990989    0.00440000
opls_145-186    C    0.12702027    0.69181007    0.11310002    0.09570000
opls_700-187    C    0.30825003    0.43526978    0.11174976    0.10390000
opls_700-188    C    0.56483006    0.87299972    0.11298028    0.12260000
opls_145-189    C    0.15925014    0.67476006    0.08744982    -0.21290000
opls_145-190    C    0.32526016    0.48450988    0.08581994    -0.21710000
opls_145-191    C    0.51557005    0.84078996    0.08717019    -0.21110000
opls_916-192    C    0.21006987    0.70799974    0.08243967    0.20750000
opls_916-193    C    0.29202007    0.50208990    0.08100985    0.18480000
opls_916-194    C    0.49799028    0.78998004    0.08197001    0.18400000
opls_145-195    C    0.22841995    0.75769977    0.10407000    -0.19900000
opls_145-196    C    0.24236011    0.47078003    0.10319017    -0.23530000
opls_145-197    C    0.52933006    0.77160006    0.10359030    -0.20260000
opls_145-198    C    0.19652013    0.77148002    0.14543969    0.04780000
opls_145-199    C    0.22866006    0.42516000    0.14479005    0.04770000
opls_700-200    C    0.57496997    0.80346987    0.14515001    0.06030000
opls_145-201    C    0.08879017    0.89874977    0.22130034    -0.19750000
opls_145-202    C    0.10144984    0.19018983    0.22124009    -0.20580000
opls_145-203    C    0.80995999    0.91122001    0.22141003    -0.20550000
opls_145-204    C    0.12188006    0.88245002    0.23211010    0.01620000
opls_145-205    C    0.11776004    0.23958997    0.23202976    0.04770000
opls_700-206    C    0.76057026    0.87812003    0.23218039    0.05830000
opls_145-207    C    0.17110019    0.91424005    0.23486004    0.03720000
opls_145-208    C    0.08595995    0.25702013    0.23489017    -0.00140000
opls_145-209    C    0.74315001    0.82889994    0.23488013    0.00050000
opls_145-210    C    0.19015994    0.96477984    0.22755028    0.09610000
opls_700-211    C    0.03541995    0.22552986    0.22767002    0.10220000
opls_145-212    C    0.77465014    0.80985979    0.22756033    0.10250000
opls_145-213    C    0.15711001    0.98236987    0.22458019    -0.23470000
opls_145-214    C    0.01782991    0.17490002    0.22467984    -0.24080000
opls_145-215    C    0.82527017    0.84292004    0.22462036    -0.21700000
opls_916-216    C    0.10631022    0.94912995    0.21888023    0.18520000
opls_916-217    C    0.05106990    0.15733007    0.21890032    0.21350000
opls_916-218    C    0.84283006    0.89371996    0.21895979    0.18340000
opls_148-219    C    0.24407003    0.99918983    0.22000029    -0.45850000
opls_148-220    C    0.00101983    0.24503986    0.22013007    -0.45850000
opls_148-221    C    0.75516009    0.75596007    0.21998021    -0.45860000
opls_148-222    C    0.07287023    0.66025007    0.10053987    -0.45830000
opls_148-223    C    0.33979015    0.41265997    0.09894011    -0.45860000
opls_148-224    C    0.58743030    0.92716002    0.10061016    -0.45860000
opls_145-225    C    0.04688014    0.00196009    0.06591991    -0.15700000
opls_145-226    C    0.99817006    0.04503995    0.06603964    -0.14230000
opls_700-227    C    0.95508001    0.95322977    0.06602033    -0.20210000
opls_280-228    C    0.04509999    0.04677011    0.04446029    0.30080000
opls_280-229    C    0.95333990    0.99843970    0.04465031    0.24200000
opls_280-230    C    0.00167017    0.95500983    0.04446029    0.30150000
opls_142-231    C    0.08195008    0.00452998    0.13006007    0.06510000
opls_142-232    C    0.99562994    0.07756015    0.13016976    0.10380000
opls_142-233    C    0.92257990    0.91812975    0.13011028    0.04650000
opls_145-234    C    0.28407996    0.65967977    0.15425033    -0.11320000
opls_145-235    C    0.34028002    0.62418976    0.15331025    -0.14100000
opls_700-236    C    0.37579006    0.71587981    0.15409043    -0.23790000
opls_280-237    C    0.29099000    0.61753009    0.17101032    0.25200000
opls_280-238    C    0.38241993    0.67317988    0.17087977    0.28440000
opls_280-239    C    0.32676995    0.70896999    0.17160975    0.30170000
opls_142-240    C    0.24331002    0.65316001    0.10694972    0.04560000
opls_142-241    C    0.34685008    0.59013979    0.10519006    0.11080000
opls_142-242    C    0.40994998    0.75667981    0.10673034    0.04740000
opls_281-243    O    0.41551008    0.75258005    0.69872027    -0.45080000
opls_281-244    O    0.24710987    0.66312983    0.69864998    -0.36250000
opls_281-245    O    0.33644016    0.58420997    0.69549990    -0.39430000
opls_281-246    O    0.58932998    0.24413991    0.85943065    -0.49330000
opls_281-247    O    0.75577989    0.34634990    0.86172021    -0.36000000
opls_281-248    O    0.65356011    0.41054989    0.85968016    -0.38540000
opls_281-249    O    0.74942013    0.41892007    0.36337984    -0.39680000
opls_281-250    O    0.58108991    0.33035995    0.36336980    -0.36250000
opls_281-251    O    0.66970004    0.25060984    0.36357990    -0.43820000
opls_281-252    O    0.92278004    0.91072979    0.52460004    -0.48380000
opls_281-253    O    0.08927003    0.01207001    0.52466029    -0.36080000
opls_281-254    O    0.98793005    0.07721997    0.52469042    -0.44230000
opls_281-255    O    0.08264012    0.08579998    0.02969014    -0.47640000
opls_281-256    O    0.91430024    0.99694987    0.03001998    -0.36250000
opls_281-257    O    0.00316985    0.91746971    0.02973031    -0.43800000
opls_281-258    O    0.25618002    0.57724990    0.19197016    -0.49330000
opls_281-259    O    0.42266008    0.67855979    0.19185970    -0.36040000
opls_281-260    O    0.32136020    0.74379001    0.19295041    -0.44140000
opls_238-261    N    0.40511023    0.63134004    0.86657047    -0.35120000
opls_238-262    N    0.36758017    0.77287986    0.87012995    -0.35040000
opls_238-263    N    0.22708024    0.59463004    0.86986036    -0.28120000
opls_238-264    N    0.57606989    0.35860999    0.71572050    -0.30280000
opls_238-265    N    0.64184996    0.21842985    0.71756049    -0.35470000
opls_238-266    N    0.78160994    0.42385006    0.71761997    -0.23100000
opls_238-267    N    0.73851987    0.29806994    0.53426038    -0.35130000
opls_238-268    N    0.70198007    0.44048011    0.53375983    -0.35080000
opls_238-269    N    0.55953999    0.26136012    0.53367023    -0.28110000
opls_238-270    N    0.90965011    0.02557008    0.38236991    -0.30300000
opls_238-271    N    0.97446011    0.88412002    0.38231043    -0.35460000
opls_238-272    N    0.11587001    0.09034004    0.38231043    -0.23100000
opls_238-273    N    0.07202023    0.96504998    0.20026016    -0.35120000
opls_238-274    N    0.03513997    0.10711998    0.20028025    -0.35080000
opls_238-275    N    0.89303999    0.92802976    0.20036985    -0.28120000
opls_238-276    N    0.24302997    0.69220999    0.05074036    -0.30850000
opls_238-277    N    0.30777002    0.55080003    0.04909039    -0.35470000
opls_238-278    N    0.44925003    0.75705988    0.05019964    -0.23100000
opls_140-279    H    0.43942987    0.50797982    0.75460056    0.09820000
opls_140-280    H    0.48880020    0.92910994    0.74416003    0.07470000
opls_702-281    H    0.07093021    0.55968991    0.74411987    0.03820000
opls_140-282    H    0.41948983    0.44313978    0.90389017    0.11330000
opls_140-283    H    0.55784996    0.97493971    0.90291996    0.10510000
opls_140-284    H    0.02516008    0.58302996    0.90273998    0.04050000
opls_140-285    H    0.56844980    0.53714976    0.90078026    0.08770000
opls_140-286    H    0.46180991    0.03222002    0.89994060    0.23920000
opls_140-287    H    0.96769999    0.42957989    0.89969032    0.03700000
opls_140-288    H    0.53040010    0.56666998    0.75609990    0.04280000
opls_140-289    H    0.43228004    0.96100977    0.74531022    0.04050000
opls_140-290    H    0.03896014    0.47126980    0.74526001    0.11090000
opls_140-291    H    0.49143003    0.50520979    0.02153068    0.11330000
opls_140-292    H    0.49435005    0.98571006    0.01807008    0.10800000
opls_140-293    H    0.01430994    0.50865006    0.01838061    0.08910000
opls_140-294    H    0.50062006    0.45916000    0.99343026    0.11490000
opls_140-295    H    0.54093002    0.04095015    0.98983061    0.08760000
opls_140-296    H    0.95892996    0.50002005    0.99002063    0.19330000
opls_140-297    H    0.45084991    0.43908993    0.71542001    0.11570000
opls_140-298    H    0.56027994    0.01215012    0.70328008    0.04180000
opls_702-299    H    0.98793020    0.54823002    0.70319048    0.03820000
opls_140-300    H    0.54248999    0.49798006    0.71188988    0.03920000
opls_140-301    H    0.50359005    0.04432000    0.69998015    0.04000000
opls_702-302    H    0.95564020    0.45935007    0.69988050    0.04380000
opls_146-303    H    0.47815002    0.30357979    0.72944010    0.04100000
opls_146-304    H    0.69671998    0.17565008    0.73301039    0.10470000
opls_146-305    H    0.82458999    0.52151002    0.73302044    0.24120000
opls_146-306    H    0.59930000    0.45118981    0.75370992    0.11530000
opls_146-307    H    0.54917012    0.14946007    0.75355002    0.24020000
opls_146-308    H    0.85046000    0.39994003    0.75351989    0.07470000
opls_146-309    H    0.38408006    0.53929010    0.87017012    0.09950000
opls_146-310    H    0.45978013    0.84318002    0.87105999    0.24010000
opls_146-311    H    0.15682020    0.61658009    0.87108007    0.04050000
opls_146-312    H    0.50406021    0.68771000    0.88755039    0.04380000
opls_146-313    H    0.31188995    0.81583987    0.89233035    0.10470000
opls_146-314    H    0.18412019    0.49601011    0.89209012    0.24020000
opls_140-315    H    0.58591014    0.68556974    0.80996021    0.08000000
opls_702-316    H    0.31306993    0.89881974    0.81270011    0.09050000
opls_140-317    H    0.10109012    0.41417992    0.81276037    0.10120000
opls_140-318    H    0.59784992    0.64574983    0.89149996    0.11520000
opls_702-319    H    0.35342987    0.95136976    0.89182053    0.08000000
opls_140-320    H    0.04856992    0.40203003    0.89191014    0.11810000
opls_140-321    H    0.58913007    0.69230977    0.95294039    0.09210000
opls_702-322    H    0.30754017    0.89648974    0.95596997    0.09800000
opls_140-323    H    0.10345006    0.41101996    0.95604026    0.08180000
opls_140-324    H    0.39609985    0.28949990    0.73926034    0.08230000
opls_702-325    H    0.71111985    0.10796990    0.74064999    0.10620000
opls_702-326    H    0.89237012    0.60352986    0.74075041    0.11680000
opls_140-327    H    0.39268996    0.34317993    0.70580061    0.08250000
opls_702-328    H    0.65776989    0.05100998    0.70499030    0.08850000
opls_702-329    H    0.94927006    0.60701983    0.70498026    0.10070000
opls_140-330    H    0.38771999    0.32397004    0.84279039    0.16420000
opls_702-331    H    0.67623013    0.06431009    0.84257024    0.08000000
opls_702-332    H    0.93602990    0.61219984    0.84259033    0.08850000
opls_144-333    H    0.44778019    0.70580998    0.81068014    0.03620000
opls_144-334    H    0.29339999    0.74149006    0.81266999    0.11680000
opls_144-335    H    0.25830992    0.55189998    0.81113048    0.06050000
opls_910-336    H    0.36877008    0.60702975    0.88673004    0.24500000
opls_910-337    H    0.39169024    0.76060005    0.89022000    0.22770000
opls_910-338    H    0.23941008    0.63099989    0.89022000    0.25270000
opls_144-339    H    0.54530006    0.28320009    0.76323044    0.04310000
opls_144-340    H    0.71705003    0.26299982    0.76665011    0.11660000
opls_144-341    H    0.73715992    0.45484985    0.76512992    0.06140000
opls_910-342    H    0.60844010    0.38427000    0.67855992    0.25580000
opls_910-343    H    0.61647020    0.22521002    0.67932002    0.25930000
opls_910-344    H    0.77469011    0.39151995    0.67995035    0.24680000
opls_140-345    H    0.77263984    0.17461993    0.42207032    0.09820000
opls_140-346    H    0.82541011    0.59807999    0.42196990    0.10900000
opls_702-347    H    0.40188998    0.22717994    0.42142996    0.04160000
opls_140-348    H    0.75286994    0.10976995    0.57122012    0.11010000
opls_140-349    H    0.89024017    0.64312003    0.57117995    0.24030000
opls_140-350    H    0.35697009    0.24713009    0.57061992    0.04870000
opls_140-351    H    0.90180997    0.20386995    0.56766991    0.08780000
opls_140-352    H    0.79613997    0.69795998    0.56765987    0.24020000
opls_140-353    H    0.30202981    0.09817983    0.56767995    0.04020000
opls_140-354    H    0.86360983    0.23331989    0.42318034    0.04030000
opls_140-355    H    0.76671025    0.63034006    0.42311005    0.04810000
opls_140-356    H    0.36959014    0.13619994    0.42298028    0.10610000
opls_140-357    H    0.82487003    0.17187005    0.68868992    0.11300000
opls_140-358    H    0.82813998    0.65301008    0.68864048    0.10760000
opls_140-359    H    0.34709015    0.17522013    0.68836008    0.10060000
opls_140-360    H    0.83408011    0.12583990    0.66042032    0.11490000
opls_140-361    H    0.87416014    0.70824978    0.66042032    0.11470000
opls_140-362    H    0.29184979    0.16601987    0.66022026    0.19330000
opls_140-363    H    0.78412999    0.10576995    0.38256998    0.11820000
opls_140-364    H    0.89425989    0.67841981    0.38255994    0.11400000
opls_702-365    H    0.32154003    0.21573010    0.38216985    0.04060000
opls_140-366    H    0.87574999    0.16469986    0.37882047    0.04300000
opls_140-367    H    0.83533017    0.71110980    0.37881043    0.07850000
opls_702-368    H    0.28882013    0.12410015    0.37874014    0.11140000
opls_146-369    H    0.81171993    0.97040015    0.39613046    0.04100000
opls_146-370    H    0.02963002    0.84134973    0.39609029    0.10470000
opls_146-371    H    0.15865982    0.18826987    0.39600995    0.24120000
opls_146-372    H    0.93275007    0.11805986    0.42058025    0.11320000
opls_146-373    H    0.88197012    0.81471976    0.42059030    0.24010000
opls_146-374    H    0.18523993    0.06720987    0.42068994    0.07440000
opls_146-375    H    0.71739991    0.20598000    0.53813039    0.11400000
opls_146-376    H    0.79406022    0.51146009    0.53792028    0.24020000
opls_146-377    H    0.48857987    0.28247989    0.53701033    0.04050000
opls_146-378    H    0.83745019    0.35439002    0.55493982    0.04280000
opls_146-379    H    0.64563016    0.48307010    0.55447017    0.10470000
opls_146-380    H    0.51690010    0.16243003    0.55468028    0.24020000
opls_140-381    H    0.91916996    0.35213002    0.47670000    0.08000000
opls_702-382    H    0.64788020    0.56710009    0.47660036    0.09050000
opls_140-383    H    0.43287997    0.08061004    0.47692015    0.10060000
opls_140-384    H    0.93121016    0.31237999    0.55822045    0.11710000
opls_702-385    H    0.68762992    0.61883988    0.55824053    0.08000000
opls_140-386    H    0.38110997    0.06870985    0.55833013    0.11720000
opls_140-387    H    0.92261006    0.35902008    0.61965006    0.09120000
opls_702-388    H    0.64098991    0.56355977    0.61955041    0.09950000
opls_140-389    H    0.43633003    0.07735009    0.61991038    0.08230000
opls_140-390    H    0.72963997    0.95620994    0.40604030    0.08230000
opls_702-391    H    0.04381985    0.77345974    0.40606039    0.10620000
opls_702-392    H    0.22657006    0.27033998    0.40575990    0.11690000
opls_140-393    H    0.72617988    0.00984976    0.37249019    0.08230000
opls_702-394    H    0.99018001    0.71637008    0.37252032    0.08850000
opls_702-395    H    0.28366983    0.27378986    0.37232025    0.11800000
opls_140-396    H    0.72117005    0.99063984    0.50950006    0.16420000
opls_702-397    H    0.00938011    0.73056973    0.50953018    0.08000000
opls_702-398    H    0.26944010    0.27880992    0.50929999    0.08850000
opls_144-399    H    0.78125983    0.37239985    0.47760996    0.03620000
opls_144-400    H    0.62767001    0.40890012    0.47696032    0.11680000
opls_144-401    H    0.59110988    0.21861995    0.47692015    0.05860000
opls_910-402    H    0.70218006    0.27385995    0.55462002    0.25350000
opls_910-403    H    0.72619003    0.42835993    0.55419981    0.24730000
opls_910-404    H    0.57165006    0.29767997    0.55407004    0.25230000
opls_144-405    H    0.87868000    0.95016001    0.43013014    0.04310000
opls_144-406    H    0.04985997    0.92855979    0.43010001    0.11660000
opls_144-407    H    0.07144003    0.12130981    0.43005984    0.06140000
opls_910-408    H    0.94195992    0.05126001    0.34505021    0.25910000
opls_910-409    H    0.94876002    0.89071975    0.34498996    0.26480000
opls_910-410    H    0.10926010    0.05803003    0.34500000    0.25920000
opls_140-411    H    0.10611998    0.84143994    0.08836982    0.09830000
opls_140-412    H    0.15864003    0.26476998    0.08811027    0.10840000
opls_702-413    H    0.73535004    0.89390993    0.08843007    0.04160000
opls_140-414    H    0.08624009    0.77670996    0.23788035    0.11100000
opls_140-415    H    0.22352011    0.30969988    0.23729019    0.23360000
opls_140-416    H    0.69043995    0.91371978    0.23792979    0.04870000
opls_140-417    H    0.23520012    0.87073975    0.23445991    0.08770000
opls_140-418    H    0.12949008    0.36461999    0.23439039    0.24020000
opls_140-419    H    0.63553995    0.76476983    0.23426989    0.04020000
opls_140-420    H    0.19710019    0.90012988    0.08965982    0.04280000
opls_140-421    H    0.09997004    0.29707993    0.08965982    0.04810000
opls_140-422    H    0.70309009    0.80294005    0.08961038    0.10620000
opls_140-423    H    0.15821994    0.83887977    0.35532002    0.11280000
opls_140-424    H    0.16146996    0.31956001    0.35504040    0.10760000
opls_140-425    H    0.68061001    0.84170980    0.35526982    0.09000000
opls_140-426    H    0.16740993    0.79281994    0.32742044    0.11490000
opls_140-427    H    0.20751018    0.37479992    0.32691988    0.11470000
opls_140-428    H    0.62536013    0.83251002    0.32728989    0.19320000
opls_140-429    H    0.11755011    0.77245989    0.04948975    0.11820000
opls_140-430    H    0.22753022    0.34513002    0.04885016    0.11100000
opls_702-431    H    0.65497012    0.88249983    0.04946967    0.04040000
opls_140-432    H    0.20918008    0.83138980    0.04574025    0.03920000
opls_140-433    H    0.16862022    0.37785006    0.04544981    0.07850000
opls_702-434    H    0.62230006    0.79086989    0.04554018    0.10010000
opls_146-435    H    0.14508008    0.63705009    0.06456038    0.07450000
opls_146-436    H    0.36292012    0.50800984    0.06260993    0.10470000
opls_146-437    H    0.49204018    0.85497987    0.06433019    0.24120000
opls_146-438    H    0.26612001    0.78475003    0.08820992    0.11530000
opls_146-439    H    0.21528994    0.48141994    0.08756028    0.24010000
opls_146-440    H    0.51868015    0.73391994    0.08758036    0.07440000
opls_146-441    H    0.05088005    0.87295995    0.20382042    0.09890000
opls_146-442    H    0.12723012    0.17806993    0.20367983    0.24010000
opls_146-443    H    0.82206016    0.94913977    0.20395019    0.04050000
opls_146-444    H    0.17094010    0.02133972    0.22115975    0.04280000
opls_146-445    H    0.97886000    0.14975981    0.22131038    0.10490000
opls_146-446    H    0.85042987    0.82909979    0.22116979    0.24020000
opls_140-447    H    0.25275007    0.01911994    0.14338032    0.08000000
opls_702-448    H    0.98109997    0.23379984    0.14350005    0.09050000
opls_140-449    H    0.76641997    0.74729002    0.14335019    0.10070000
opls_140-450    H    0.26465997    0.97924994    0.22478026    0.11710000
opls_702-451    H    0.02096020    0.28557012    0.22493011    0.08000000
opls_140-452    H    0.71462995    0.73535979    0.22476017    0.11720000
opls_140-453    H    0.25604001    0.02583970    0.28635973    0.09210000
opls_702-454    H    0.97436004    0.23035010    0.28648023    0.09950000
opls_140-455    H    0.76984993    0.74398991    0.28634042    0.08230000
opls_140-456    H    0.06298001    0.62283989    0.07452971    0.08180000
opls_702-457    H    0.37711012    0.44011997    0.07236992    0.10620000
opls_702-458    H    0.55993021    0.93706985    0.07460000    0.11690000
opls_140-459    H    0.05951004    0.67640986    0.04024036    0.08230000
opls_702-460    H    0.32345986    0.38300986    0.03896967    0.08850000
opls_702-461    H    0.61697995    0.94055993    0.04038017    0.12150000
opls_140-462    H    0.05457991    0.65753994    0.17748042    0.16680000
opls_702-463    H    0.34274012    0.39726005    0.17593010    0.08000000
opls_702-464    H    0.60297003    0.94538982    0.17763027    0.08850000
opls_144-465    H    0.11470989    0.03934004    0.14339036    0.03620000
opls_144-466    H    0.96082008    0.07550984    0.14356030    0.11670000
opls_144-467    H    0.92464993    0.88536978    0.14335019    0.05860000
opls_910-468    H    0.03568994    0.94083975    0.22067001    0.25350000
opls_910-469    H    0.05936020    0.09500012    0.22060976    0.24240000
opls_910-470    H    0.90515012    0.96434972    0.22081987    0.25270000
opls_144-471    H    0.21198003    0.61681978    0.09864967    0.04310000
opls_144-472    H    0.38321995    0.59523996    0.09652001    0.11670000
opls_144-473    H    0.40492008    0.78801973    0.09881034    0.06030000
opls_910-474    H    0.27533001    0.71786990    0.01339981    0.25870000
opls_910-475    H    0.28203995    0.55742979    0.01203024    0.21010000
opls_910-476    H    0.44260023    0.72479992    0.01257019    0.25920000
