#======================================================================
# Crystal Data Generated By AuToFF
#----------------------------------------------------------------------

data_AuToFF_phase_1

_cell_length_a                         81.8983
_cell_length_b                         81.8983
_cell_length_c                         7.2497
_cell_angle_alpha                      90.00
_cell_angle_beta                       90.00
_cell_angle_gamma                      120.00
_symmetry_space_group_name_H-M_alt     'P 1'
_symmetry_space_group_IT_number        1

loop_
_space_group_symop_operation_xyz
   'x, y, z'

loop_
   _atom_site_label
   _atom_site_type_symbol
   _atom_site_fract_x
   _atom_site_fract_y
   _atom_site_fract_z
   _atom_site_charge
opls_166-0    C    0.00819994    0.48926000    0.22619005    0.26450000
opls_700-1    C    0.01959006    0.50793002    0.29223002    -0.02460000
opls_145-2    C    0.01099995    0.51845000    0.33995062    -0.13320000
opls_700-3    C    0.04051996    0.51710000    0.30473951    0.06390000
opls_145-4    C    0.04924994    0.50798995    0.38830986    -0.12100000
opls_145-5    C    0.06891999    0.51646004    0.39163965    -0.13400000
opls_700-6    C    0.08032991    0.53458992    0.31746969    0.06340000
opls_145-7    C    0.07159002    0.54417004    0.24448046    -0.12110000
opls_145-8    C    0.05198998    0.53552004    0.23853953    -0.11510000
opls_700-9    C    0.10121002    0.54359000    0.31834972    0.06390000
opls_145-10    C    0.10995994    0.53284994    0.28522008    -0.12850000
opls_145-11    C    0.12958994    0.54126998    0.28886988    -0.12310000
opls_700-12    C    0.14089001    0.56060999    0.32481068    0.05850000
opls_145-13    C    0.13221999    0.57144001    0.35579955    -0.12740000
opls_145-14    C    0.11259000    0.56301997    0.35265045    -0.12980000
opls_142-15    C    0.16157002    0.56909997    0.33171993    0.06920000
opls_166-16    C    0.49301999    0.01162000    0.21356056    0.26450000
opls_145-17    C    0.51910007    0.00843005    0.32928949    -0.12820000
opls_700-18    C    0.51207000    0.02001001    0.27012014    -0.02340000
opls_700-19    C    0.52497994    0.04079998    0.26538064    0.06350000
opls_145-20    C    0.54328995    0.04845994    0.19350042    -0.12260000
opls_145-21    C    0.55541999    0.06795998    0.18673049    -0.12760000
opls_700-22    C    0.54945997    0.08030002    0.25145040    0.06340000
opls_145-23    C    0.53139002    0.07264007    0.32978054    -0.12990000
opls_145-24    C    0.51946999    0.05312000    0.33973958    -0.12070000
opls_142-25    C    0.59829997    0.16127003    0.21633033    0.06820000
opls_700-26    C    0.58572000    0.14060004    0.22106984    0.06840000
opls_145-27    C    0.56632997    0.13232001    0.18451936    -0.12850000
opls_145-28    C    0.55462003    0.11277005    0.19306040    -0.13070000
opls_700-29    C    0.56202998    0.10105996    0.23852021    0.06550000
opls_145-30    C    0.58147007    0.10937003    0.27284026    -0.13220000
opls_145-31    C    0.59318000    0.12894000    0.26435025    -0.12230000
opls_531-32    C    0.31412002    0.65714003    0.39811027    0.32530000
opls_700-33    C    0.35353998    0.70674002    0.39588949    0.00060000
opls_523-34    C    0.37276999    0.71678993    0.44184035    -0.12590000
opls_145-35    C    0.38270002    0.73648003    0.43901955    -0.12970000
opls_700-36    C    0.37369000    0.74659000    0.38818020    0.06740000
opls_145-37    C    0.35444998    0.73649004    0.34149965    -0.12850000
opls_523-38    C    0.34447001    0.71679994    0.34644054    -0.12740000
opls_700-39    C    0.38427001    0.76756002    0.38280067    0.06710000
opls_145-40    C    0.40321006    0.77745005    0.32516932    -0.13220000
opls_145-41    C    0.41303001    0.79713000    0.31791936    -0.17310000
opls_145-42    C    0.40410990    0.80732992    0.36444956    0.18610000
opls_145-43    C    0.38530000    0.79756002    0.42559968    -0.17140000
opls_145-44    C    0.37551002    0.77787993    0.43472006    -0.13070000
opls_145-45    C    0.59071006    0.39806003    0.17400030    0.18780000
opls_531-46    C    0.65785002    0.31413003    0.14805992    0.32900000
opls_700-47    C    0.64499997    0.35172992    0.15009035    -0.00150000
opls_523-48    C    0.65341004    0.37090004    0.19660951    -0.12760000
opls_145-49    C    0.64271995    0.37988997    0.20117936    -0.13090000
opls_700-50    C    0.62340993    0.36997993    0.15730996    0.06720000
opls_145-51    C    0.61505000    0.35080995    0.10954936    -0.13220000
opls_523-52    C    0.62569003    0.34176997    0.10684028    -0.12970000
opls_700-53    C    0.61206992    0.37957993    0.16199981    0.06740000
opls_145-54    C    0.61997000    0.39847004    0.10572024    -0.12850000
opls_145-55    C    0.60941000    0.40756995    0.11264052    -0.16740000
opls_145-56    C    0.58268001    0.37913003    0.23031988    -0.17310000
opls_145-57    C    0.59328000    0.37002998    0.22415962    -0.13400000
opls_181-58    C    0.53445001    0.55161992    0.24981034    -0.20340000
opls_181-59    C    0.55247994    0.52485992    0.20724030    -0.20330000
opls_145-60    C    0.00831001    0.49943004    0.74937032    -0.12200000
opls_700-61    C    0.01993997    0.51895997    0.77491069    -0.01540000
opls_166-62    C    0.01124003    0.53017997    0.79187001    0.26450000
opls_700-63    C    0.04090004    0.52700004    0.77701974    0.06570000
opls_145-64    C    0.04856999    0.51647005    0.85331945    -0.12000000
opls_145-65    C    0.06799000    0.52364006    0.85964936    -0.12210000
opls_700-66    C    0.08044996    0.54170001    0.79149068    0.06040000
opls_145-67    C    0.07294994    0.55208999    0.70976040    -0.13170000
opls_145-68    C    0.05343998    0.54468001    0.69915031    -0.13260000
opls_700-69    C    0.10114002    0.54956003    0.80529953    0.06340000
opls_145-70    C    0.10903996    0.53793002    0.77881016    -0.13060000
opls_145-71    C    0.12849997    0.54531997    0.79114998    -0.12110000
opls_700-72    C    0.14048001    0.56448995    0.82928949    0.05850000
opls_145-73    C    0.13265004    0.57613998    0.85727961    -0.12970000
opls_145-74    C    0.11317000    0.56873000    0.84577017    -0.12970000
opls_142-75    C    0.16101994    0.57202992    0.83819055    0.06910000
opls_145-76    C    0.50232996    0.01116995    0.74013959    -0.12540000
opls_166-77    C    0.53032005    0.00862998    0.78486006    0.26440000
opls_700-78    C    0.52200000    0.02003003    0.75749065    -0.02100000
opls_700-79    C    0.53337995    0.04107999    0.74393975    0.06620000
opls_145-80    C    0.55123004    0.05028000    0.65891968    -0.12590000
opls_145-81    C    0.56203006    0.06993006    0.65685063    -0.12310000
opls_700-82    C    0.55497994    0.08094999    0.73259031    0.06450000
opls_145-83    C    0.53677004    0.07190000    0.80764997    -0.11930000
opls_145-84    C    0.52617992    0.05225995    0.81446956    -0.12970000
opls_142-85    C    0.60077002    0.16214996    0.72294992    0.06810000
opls_700-86    C    0.58879995    0.14144994    0.72676938    0.05480000
opls_145-87    C    0.56938005    0.13256998    0.68945060    -0.12760000
opls_145-88    C    0.55837002    0.11292994    0.69238037    -0.12760000
opls_700-89    C    0.56656005    0.10180003    0.73223030    0.06050000
opls_145-90    C    0.58595003    0.11074005    0.77101949    -0.12230000
opls_145-91    C    0.59694998    0.13036994    0.76816006    -0.11990000
opls_531-92    C    0.31412999    0.65731993    0.89919997    0.34500000
opls_700-93    C    0.35390006    0.70672000    0.89727023    0.00030000
opls_523-94    C    0.37311998    0.71654997    0.94369974    -0.12590000
opls_145-95    C    0.38328005    0.73623005    0.94036029    -0.12990000
opls_700-96    C    0.37451994    0.74654996    0.88823951    0.06480000
opls_145-97    C    0.35526999    0.73667996    0.84209002    -0.12970000
opls_523-98    C    0.34505003    0.71699000    0.84758956    -0.12760000
opls_700-99    C    0.38546003    0.76747994    0.88017987    0.06720000
opls_145-100    C    0.40436994    0.77691992    0.82154986    -0.12970000
opls_145-101    C    0.41465004    0.79657999    0.81404058    -0.17140000
opls_145-102    C    0.40623994    0.80723997    0.86151979    0.18570000
opls_145-103    C    0.38739003    0.79791997    0.92186987    -0.17200000
opls_145-104    C    0.37713002    0.77824003    0.93111991    -0.13360000
opls_145-105    C    0.58957995    0.39656002    0.67905982    0.18780000
opls_531-106    C    0.65793993    0.31415993    0.64732058    0.34550000
opls_700-107    C    0.64487999    0.35153000    0.64894961    -0.00220000
opls_523-108    C    0.65316996    0.37067995    0.69606053    -0.12590000
opls_145-109    C    0.64237001    0.37953002    0.70075038    -0.12730000
opls_700-110    C    0.62307998    0.36946996    0.65653062    0.06340000
opls_145-111    C    0.61485997    0.35036004    0.60737962    -0.12730000
opls_523-112    C    0.62560998    0.34145992    0.60460985    -0.12230000
opls_700-113    C    0.61152999    0.37879996    0.66359987    0.06340000
opls_145-114    C    0.61910004    0.39766004    0.60781963    -0.12760000
opls_145-115    C    0.60822000    0.40641000    0.61633033    -0.17290000
opls_145-116    C    0.58195997    0.37767992    0.73573941    -0.17110000
opls_145-117    C    0.59284000    0.36893997    0.72779012    -0.12540000
opls_181-118    C    0.44154002    0.47041995    0.96755038    -0.20380000
opls_181-119    C    0.45801001    0.44162995    0.95650027    -0.20340000
opls_166-120    C    0.51074003    0.51893995    0.22619005    0.26450000
opls_700-121    C    0.49206993    0.51165997    0.29223002    -0.02460000
opls_145-122    C    0.48155000    0.49255005    0.33995062    -0.13320000
opls_700-123    C    0.48289992    0.52341997    0.30473951    0.06390000
opls_145-124    C    0.49201004    0.54125997    0.38830986    -0.12100000
opls_145-125    C    0.48354002    0.55245995    0.39163965    -0.13400000
opls_700-126    C    0.46541001    0.54573999    0.31746969    0.06340000
opls_145-127    C    0.45583001    0.52742005    0.24448046    -0.12110000
opls_145-128    C    0.46447997    0.51647005    0.23853953    -0.11510000
opls_700-129    C    0.45641001    0.55761998    0.31834972    0.06390000
opls_145-130    C    0.46715004    0.57711001    0.28522008    -0.12850000
opls_145-131    C    0.45872996    0.58832000    0.28886988    -0.12310000
opls_700-132    C    0.43938995    0.58027993    0.32481068    0.05850000
opls_145-133    C    0.42856000    0.56078003    0.35579955    -0.12740000
opls_145-134    C    0.43697996    0.54957004    0.35265045    -0.12990000
opls_142-135    C    0.43089992    0.59246996    0.33171993    0.06910000
opls_166-136    C    0.98837998    0.48139998    0.21356056    0.26450000
opls_145-137    C    0.99156990    0.51066992    0.32928949    -0.12820000
opls_700-138    C    0.97999003    0.49205997    0.27012014    -0.02340000
opls_700-139    C    0.95919996    0.48417992    0.26538064    0.06350000
opls_145-140    C    0.95154001    0.49483003    0.19350042    -0.12260000
opls_145-141    C    0.93203999    0.48745996    0.18673049    -0.12760000
opls_700-142    C    0.91969998    0.46916004    0.25145040    0.06340000
opls_145-143    C    0.92735996    0.45875004    0.32978054    -0.12990000
opls_145-144    C    0.94688001    0.46634993    0.33973958    -0.12060000
opls_142-145    C    0.83872992    0.43702994    0.21633033    0.06820000
opls_700-146    C    0.85939992    0.44511992    0.22106984    0.06850000
opls_145-147    C    0.86768006    0.43401003    0.18451936    -0.12850000
opls_145-148    C    0.88723006    0.44185003    0.19306040    -0.13070000
opls_700-149    C    0.89894000    0.46096996    0.23852021    0.06550000
opls_145-150    C    0.89063001    0.47210001    0.27284026    -0.13220000
opls_145-151    C    0.87106000    0.46423999    0.26435025    -0.12230000
opls_531-152    C    0.34286002    0.65698000    0.39811027    0.32530000
opls_700-153    C    0.29326004    0.64679995    0.39588949    0.00060000
opls_523-154    C    0.28320992    0.65597994    0.44184035    -0.12590000
opls_145-155    C    0.26352002    0.64622005    0.43901955    -0.12970000
opls_700-156    C    0.25341004    0.62709999    0.38818020    0.06740000
opls_145-157    C    0.26350997    0.61796004    0.34149965    -0.12850000
opls_523-158    C    0.28320006    0.62767002    0.34644054    -0.12740000
opls_700-159    C    0.23244000    0.61671001    0.38280067    0.06710000
opls_145-160    C    0.22255004    0.62576000    0.32516932    -0.13220000
opls_145-161    C    0.20287004    0.61590001    0.31791936    -0.17310000
opls_145-162    C    0.19266995    0.59677994    0.36444956    0.18610000
opls_145-163    C    0.20244000    0.58773996    0.42559968    -0.17150000
opls_145-164    C    0.22211999    0.59762998    0.43472006    -0.13070000
opls_145-165    C    0.60194004    0.19265006    0.17400030    0.18780000
opls_531-166    C    0.68587007    0.34372003    0.14805992    0.32910000
opls_700-167    C    0.64826995    0.29326999    0.15009035    -0.00150000
opls_523-168    C    0.62910007    0.28251004    0.19660951    -0.12760000
opls_145-169    C    0.62010998    0.26282995    0.20117936    -0.13100000
opls_700-170    C    0.63001996    0.25343002    0.15730996    0.06720000
opls_145-171    C    0.64918996    0.26424002    0.10954936    -0.13220000
opls_523-172    C    0.65823004    0.28391996    0.10684028    -0.12970000
opls_700-173    C    0.62042007    0.23249003    0.16199981    0.06740000
opls_145-174    C    0.60153002    0.22149998    0.10572024    -0.12840000
opls_145-175    C    0.59242999    0.20184006    0.11264052    -0.16740000
opls_145-176    C    0.62087003    0.20355001    0.23031988    -0.17310000
opls_145-177    C    0.62996994    0.22324998    0.22415962    -0.13400000
opls_181-178    C    0.44838004    0.98282999    0.24981034    -0.20340000
opls_181-179    C    0.47513999    0.02762005    0.20724030    -0.20330000
opls_145-180    C    0.50057003    0.50888003    0.74937032    -0.12200000
opls_700-181    C    0.48103995    0.50097996    0.77491069    -0.01540000
opls_166-182    C    0.46982001    0.48106005    0.79187001    0.26450000
opls_700-183    C    0.47300005    0.51390005    0.77701974    0.06570000
opls_145-184    C    0.48352997    0.53210000    0.85331945    -0.12000000
opls_145-185    C    0.47635992    0.54434995    0.85964936    -0.12210000
opls_700-186    C    0.45830006    0.53875003    0.79149068    0.06040000
opls_145-187    C    0.44790995    0.52085998    0.70976040    -0.13170000
opls_145-188    C    0.45531997    0.50876004    0.69915031    -0.13260000
opls_700-189    C    0.45044003    0.55158002    0.80529953    0.06340000
opls_145-190    C    0.46206999    0.57110995    0.77881016    -0.13070000
opls_145-191    C    0.45467995    0.58317999    0.79114998    -0.12110000
opls_700-192    C    0.43551001    0.57598996    0.82928949    0.05850000
opls_145-193    C    0.42385995    0.55650995    0.85727961    -0.12970000
opls_145-194    C    0.43126997    0.54444004    0.84577017    -0.12970000
opls_142-195    C    0.42797005    0.58898999    0.83819055    0.06910000
opls_145-196    C    0.98882999    0.49116001    0.74013959    -0.12550000
opls_166-197    C    0.99137005    0.52169000    0.78486006    0.26440000
opls_700-198    C    0.97996998    0.50197001    0.75749065    -0.02100000
opls_700-199    C    0.95891995    0.49229993    0.74393975    0.06620000
opls_145-200    C    0.94972001    0.50094993    0.65891968    -0.12590000
opls_145-201    C    0.93007006    0.49210001    0.65685063    -0.12100000
opls_700-202    C    0.91905006    0.47403005    0.73259031    0.06440000
opls_145-203    C    0.92809996    0.46486994    0.80764997    -0.11930000
opls_145-204    C    0.94773992    0.47391993    0.81446956    -0.12970000
opls_142-205    C    0.83784997    0.43862005    0.72294992    0.06810000
opls_700-206    C    0.85854996    0.44734999    0.72676938    0.05480000
opls_145-207    C    0.86742995    0.43680999    0.68945060    -0.12760000
opls_145-208    C    0.88707004    0.44543997    0.69238037    -0.12760000
opls_700-209    C    0.89820003    0.46475997    0.73223030    0.06050000
opls_145-210    C    0.88926005    0.47521001    0.77101949    -0.12230000
opls_145-211    C    0.86962996    0.46658003    0.76816006    -0.12000000
opls_531-212    C    0.34268000    0.65680996    0.89919997    0.34500000
opls_700-213    C    0.29327993    0.64717993    0.89727023    0.00030000
opls_523-214    C    0.28345000    0.65656999    0.94369974    -0.12590000
opls_145-215    C    0.26377000    0.64704993    0.94036029    -0.12990000
opls_700-216    C    0.25345007    0.62797005    0.88823951    0.06480000
opls_145-217    C    0.26332005    0.61858999    0.84209002    -0.12970000
opls_523-218    C    0.28300994    0.62806000    0.84758956    -0.12750000
opls_700-219    C    0.23252000    0.61797992    0.88017987    0.06720000
opls_145-220    C    0.22307998    0.62744993    0.82154986    -0.12970000
opls_145-221    C    0.20341999    0.61807001    0.81404058    -0.17150000
opls_145-222    C    0.19276006    0.59900000    0.86151979    0.18570000
opls_145-223    C    0.20207993    0.58946993    0.92186987    -0.17200000
opls_145-224    C    0.22176001    0.59889003    0.93111991    -0.13360000
opls_145-225    C    0.60344007    0.19302002    0.67905982    0.18780000
opls_531-226    C    0.68583996    0.34377995    0.64732058    0.34550000
opls_700-227    C    0.64847000    0.29334993    0.64894961    -0.00220000
opls_523-228    C    0.62931998    0.28249002    0.69606053    -0.12590000
opls_145-229    C    0.62046994    0.26283997    0.70075038    -0.12740000
opls_700-230    C    0.63052995    0.25360992    0.65653062    0.06340000
opls_145-231    C    0.64963998    0.26450001    0.60737962    -0.12740000
opls_523-232    C    0.65854008    0.28415006    0.60460985    -0.12230000
opls_700-233    C    0.62120002    0.23273000    0.66359987    0.06340000
opls_145-234    C    0.60234000    0.22144006    0.60781963    -0.12760000
opls_145-235    C    0.59358997    0.20181003    0.61633033    -0.17290000
opls_145-236    C    0.62231999    0.20427992    0.73573941    -0.17110000
opls_145-237    C    0.63106002    0.22389995    0.72779012    -0.12590000
opls_181-238    C    0.52957998    0.97112004    0.96755038    -0.20380000
opls_181-239    C    0.55837005    0.01638003    0.95650027    -0.20340000
opls_166-240    C    0.48106003    0.99180005    0.22619005    0.26450000
opls_700-241    C    0.48834001    0.98041001    0.29223002    -0.02460000
opls_145-242    C    0.50744994    0.98899995    0.33995062    -0.13320000
opls_700-243    C    0.47658000    0.95948003    0.30473951    0.06390000
opls_145-244    C    0.45873995    0.95074994    0.38830986    -0.12090000
opls_145-245    C    0.44754000    0.93108001    0.39163965    -0.13400000
opls_700-246    C    0.45426001    0.91966995    0.31746969    0.06340000
opls_145-247    C    0.47258004    0.92841004    0.24448046    -0.12110000
opls_145-248    C    0.48353001    0.94801005    0.23853953    -0.11500000
opls_700-249    C    0.44237997    0.89879002    0.31834972    0.06390000
opls_145-250    C    0.42288995    0.89003992    0.28522008    -0.12850000
opls_145-251    C    0.41167998    0.87041002    0.28886988    -0.12310000
opls_700-252    C    0.41971997    0.85910994    0.32481068    0.05850000
opls_145-253    C    0.43922000    0.86777996    0.35579955    -0.12740000
opls_145-254    C    0.45043004    0.88740999    0.35265045    -0.13070000
opls_142-255    C    0.40752999    0.83842994    0.33171993    0.06910000
opls_166-256    C    0.51860003    0.50698002    0.21356056    0.26450000
opls_145-257    C    0.48933003    0.48090003    0.32928949    -0.12820000
opls_700-258    C    0.50793997    0.48793003    0.27012014    -0.02340000
opls_700-259    C    0.51582003    0.47501995    0.26538064    0.06350000
opls_145-260    C    0.50517004    0.45671003    0.19350042    -0.12260000
opls_145-261    C    0.51253994    0.44457992    0.18673049    -0.12760000
opls_700-262    C    0.53083992    0.45053994    0.25145040    0.06340000
opls_145-263    C    0.54124997    0.46861003    0.32978054    -0.12980000
opls_145-264    C    0.53364993    0.48052992    0.33973958    -0.12070000
opls_142-265    C    0.56296998    0.40170003    0.21633033    0.06820000
opls_700-266    C    0.55487996    0.41428004    0.22106984    0.06840000
opls_145-267    C    0.56598997    0.43366996    0.18451936    -0.12850000
opls_145-268    C    0.55814998    0.44538005    0.19306040    -0.13070000
opls_700-269    C    0.53902995    0.43796994    0.23852021    0.06550000
opls_145-270    C    0.52789992    0.41852996    0.27284026    -0.13220000
opls_145-271    C    0.53576000    0.40682001    0.26435025    -0.12230000
opls_531-272    C    0.34301996    0.68587998    0.39811027    0.32530000
opls_700-273    C    0.35319999    0.64646002    0.39588949    0.00060000
opls_523-274    C    0.34402002    0.62722998    0.44184035    -0.12590000
opls_145-275    C    0.35377995    0.61729992    0.43901955    -0.12970000
opls_700-276    C    0.37289996    0.62631001    0.38818020    0.06740000
opls_145-277    C    0.38203993    0.64554992    0.34149965    -0.12850000
opls_523-278    C    0.37233005    0.65553004    0.34644054    -0.12740000
opls_700-279    C    0.38328999    0.61572997    0.38280067    0.06710000
opls_145-280    C    0.37424002    0.59678995    0.32516932    -0.13220000
opls_145-281    C    0.38409994    0.58697000    0.31791936    -0.17310000
opls_145-282    C    0.40321996    0.59589000    0.36444956    0.18610000
opls_145-283    C    0.41226000    0.61470002    0.42559968    -0.17150000
opls_145-284    C    0.40236992    0.62448994    0.43472006    -0.13060000
opls_145-285    C    0.80734996    0.40929005    0.17400030    0.18780000
opls_531-286    C    0.65627991    0.34214994    0.14805992    0.32900000
opls_700-287    C    0.70673001    0.35499995    0.15009035    -0.00150000
opls_523-288    C    0.71749009    0.34659006    0.19660951    -0.12760000
opls_145-289    C    0.73717000    0.35727993    0.20117936    -0.13090000
opls_700-290    C    0.74656999    0.37659005    0.15730996    0.06720000
opls_145-291    C    0.73576004    0.38495003    0.10954936    -0.13220000
opls_523-292    C    0.71607999    0.37430993    0.10684028    -0.12970000
opls_700-293    C    0.76751001    0.38793004    0.16199981    0.06740000
opls_145-294    C    0.77849998    0.38002998    0.10572024    -0.12850000
opls_145-295    C    0.79816002    0.39059000    0.11264052    -0.16740000
opls_145-296    C    0.79644996    0.41731996    0.23031988    -0.17310000
opls_145-297    C    0.77675007    0.40672005    0.22415962    -0.13400000
opls_181-298    C    0.01717001    0.46554994    0.24981034    -0.20320000
opls_181-299    C    0.97238007    0.44752003    0.20724030    -0.20330000
opls_145-300    C    0.49111996    0.99168993    0.74937032    -0.12200000
opls_700-301    C    0.49902001    0.98005992    0.77491069    -0.01540000
opls_166-302    C    0.51893996    0.98875998    0.79187001    0.26450000
opls_700-303    C    0.48609991    0.95909991    0.77701974    0.06570000
opls_145-304    C    0.46789992    0.95142995    0.85331945    -0.12000000
opls_145-305    C    0.45564996    0.93200999    0.85964936    -0.12210000
opls_700-306    C    0.46124998    0.91954996    0.79149068    0.06040000
opls_145-307    C    0.47913999    0.92705003    0.70976040    -0.13170000
opls_145-308    C    0.49123993    0.94655994    0.69915031    -0.13260000
opls_700-309    C    0.44841994    0.89885995    0.80529953    0.06340000
opls_145-310    C    0.42889005    0.89096003    0.77881016    -0.13070000
opls_145-311    C    0.41682007    0.87150003    0.79114998    -0.12100000
opls_700-312    C    0.42400991    0.85951994    0.82928949    0.05850000
opls_145-313    C    0.44348994    0.86734993    0.85727961    -0.12970000
opls_145-314    C    0.45555992    0.88682995    0.84577017    -0.12970000
opls_142-315    C    0.41100994    0.83897995    0.83819055    0.06910000
opls_145-316    C    0.50884005    0.49767004    0.74013959    -0.12540000
opls_166-317    C    0.47831002    0.46968002    0.78486006    0.26440000
opls_700-318    C    0.49803002    0.47799996    0.75749065    -0.02100000
opls_700-319    C    0.50769991    0.46661993    0.74393975    0.06630000
opls_145-320    C    0.49905000    0.44876992    0.65891968    -0.12590000
opls_145-321    C    0.50790000    0.43796994    0.65685063    -0.12100000
opls_700-322    C    0.52597000    0.44501996    0.73259031    0.06440000
opls_145-323    C    0.53512993    0.46322992    0.80764997    -0.11930000
opls_145-324    C    0.52607997    0.47381997    0.81446956    -0.12970000
opls_142-325    C    0.56138001    0.39922999    0.72294992    0.06810000
opls_700-326    C    0.55265002    0.41119993    0.72676938    0.05480000
opls_145-327    C    0.56319000    0.43062002    0.68945060    -0.12760000
opls_145-328    C    0.55456000    0.44162995    0.69238037    -0.12760000
opls_700-329    C    0.53524004    0.43344000    0.73223030    0.06050000
opls_145-330    C    0.52478993    0.41404994    0.77101949    -0.12230000
opls_145-331    C    0.53342006    0.40305002    0.76816006    -0.12000000
opls_531-332    C    0.34318993    0.68586997    0.89919997    0.34500000
opls_700-333    C    0.35281994    0.64609993    0.89727023    0.00030000
opls_523-334    C    0.34343002    0.62688004    0.94369974    -0.12590000
opls_145-335    C    0.35295007    0.61672002    0.94036029    -0.12990000
opls_700-336    C    0.37202999    0.62547999    0.88823951    0.06480000
opls_145-337    C    0.38141008    0.64473005    0.84209002    -0.12970000
opls_523-338    C    0.37194002    0.65495000    0.84758956    -0.12760000
opls_700-339    C    0.38202002    0.61454000    0.88017987    0.06720000
opls_145-340    C    0.37255001    0.59563001    0.82154986    -0.12970000
opls_145-341    C    0.38192997    0.58535000    0.81404058    -0.17150000
opls_145-342    C    0.40100000    0.59376003    0.86151979    0.18570000
opls_145-343    C    0.41052998    0.61260996    0.92186987    -0.17200000
opls_145-344    C    0.40110997    0.62286995    0.93111991    -0.13360000
opls_145-345    C    0.80697998    0.41041996    0.67905982    0.18780000
opls_531-346    C    0.65622004    0.34205999    0.64732058    0.34550000
opls_700-347    C    0.70664995    0.35511993    0.64894961    -0.00220000
opls_523-348    C    0.71751007    0.34683003    0.69606053    -0.12590000
opls_145-349    C    0.73716005    0.35763001    0.70075038    -0.12740000
opls_700-350    C    0.74639001    0.37691998    0.65653062    0.06340000
opls_145-351    C    0.73549993    0.38513995    0.60737962    -0.12740000
opls_523-352    C    0.71585006    0.37439002    0.60460985    -0.12230000
opls_700-353    C    0.76726999    0.38847004    0.66359987    0.06340000
opls_145-354    C    0.77856003    0.38090004    0.60781963    -0.12760000
opls_145-355    C    0.79819003    0.39177997    0.61633033    -0.17290000
opls_145-356    C    0.79571997    0.41804001    0.73573941    -0.17100000
opls_145-357    C    0.77609991    0.40715994    0.72779012    -0.12540000
opls_181-358    C    0.02888000    0.55846001    0.96755038    -0.20380000
opls_181-359    C    0.98362006    0.54199003    0.95650027    -0.20340000
opls_750-360    N    0.41470005    0.82754000    0.35250976    -0.35990000
opls_520-361    N    0.32386997    0.67628998    0.39803992    -0.49220000
opls_750-362    N    0.58073991    0.40836993    0.18053023    -0.34770000
opls_520-363    N    0.64759995    0.32302000    0.14812061    -0.48540000
opls_750-364    N    0.41746002    0.82741000    0.85170973    -0.35990000
opls_520-365    N    0.32404998    0.67646002    0.89912962    -0.45760000
opls_750-366    N    0.57918997    0.40642001    0.68611943    -0.35530000
opls_520-367    N    0.64760996    0.32294993    0.64737989    -0.46010000
opls_750-368    N    0.17246005    0.58716006    0.35250976    -0.35980000
opls_520-369    N    0.32370998    0.64757992    0.39803992    -0.49220000
opls_750-370    N    0.59163007    0.17237005    0.18053023    -0.34770000
opls_520-371    N    0.67698002    0.32457994    0.14812061    -0.48550000
opls_750-372    N    0.17258996    0.59004997    0.85170973    -0.36000000
opls_520-373    N    0.32354002    0.64758993    0.89912962    -0.45760000
opls_750-374    N    0.59358004    0.17277005    0.68611943    -0.35530000
opls_520-375    N    0.67704997    0.32466002    0.64737989    -0.46010000
opls_750-376    N    0.41284001    0.58529995    0.35250976    -0.36000000
opls_520-377    N    0.35241998    0.67612996    0.39803992    -0.49200000
opls_750-378    N    0.82763001    0.41926001    0.18053023    -0.34760000
opls_520-379    N    0.67542004    0.35240006    0.14812061    -0.48550000
opls_750-380    N    0.40995001    0.58254003    0.85170973    -0.36000000
opls_520-381    N    0.35241000    0.67595005    0.89912962    -0.45760000
opls_750-382    N    0.82722998    0.42080994    0.68611943    -0.35520000
opls_520-383    N    0.67534006    0.35239005    0.64737989    -0.46010000
opls_179-384    O    0.52001998    0.53677995    0.14241969    -0.22190000
opls_179-385    O    0.53525994    0.51282992    0.11265018    -0.21400000
opls_179-386    O    0.45006996    0.47207999    0.79171966    -0.18910000
opls_179-387    O    0.46682001    0.44998993    0.78521042    -0.20890000
opls_179-388    O    0.46322002    0.98324000    0.14241969    -0.22190000
opls_179-389    O    0.48717005    0.02242999    0.11265018    -0.21400000
opls_179-390    O    0.52791999    0.97799002    0.79171966    -0.18920000
opls_179-391    O    0.55000997    0.01682993    0.78521042    -0.20890000
opls_179-392    O    0.01676000    0.47998005    0.14241969    -0.22180000
opls_179-393    O    0.97756993    0.46473995    0.11265018    -0.21390000
opls_179-394    O    0.02201005    0.54992999    0.79171966    -0.18920000
opls_179-395    O    0.98316995    0.53318000    0.78521042    -0.20890000
opls_146-396    H    0.01939000    0.53277000    0.38978027    0.11300000
opls_146-397    H    0.04092999    0.49460995    0.45678994    0.12020000
opls_146-398    H    0.07519999    0.50904992    0.45722030    0.11440000
opls_146-399    H    0.07988001    0.55811993    0.18570010    0.11510000
opls_146-400    H    0.04582007    0.54310006    0.17700043    0.09440000
opls_146-401    H    0.10161999    0.51794003    0.25482986    0.11500000
opls_146-402    H    0.13597004    0.53266002    0.26339021    0.11450000
opls_146-403    H    0.14055994    0.58637995    0.38494972    0.11290000
opls_146-404    H    0.10633993    0.57166997    0.38140061    0.11920000
opls_144-405    H    0.16751997    0.55999992    0.31424059    0.11220000
opls_146-406    H    0.53365997    0.01450004    0.37172986    0.11440000
opls_146-407    H    0.54805997    0.03937004    0.13791053    0.09410000
opls_146-408    H    0.56919995    0.07335997    0.12489069    0.11720000
opls_146-409    H    0.52667995    0.08172996    0.38827952    0.11750000
opls_146-410    H    0.50617002    0.04766996    0.41089011    0.11870000
opls_144-411    H    0.61313999    0.16684993    0.24289005    0.11810000
opls_146-412    H    0.56017002    0.14092996    0.14925031    0.11450000
opls_146-413    H    0.53977995    0.10678001    0.16239982    0.11440000
opls_146-414    H    0.58758000    0.10077995    0.31041974    0.11470000
opls_146-415    H    0.60805993    0.13498997    0.29363008    0.11470000
opls_526-416    H    0.38011004    0.70944002    0.48248065    0.11290000
opls_146-417    H    0.39739006    0.74379004    0.47948053    0.11470000
opls_146-418    H    0.34715007    0.74377002    0.29767025    0.11420000
opls_526-419    H    0.32971009    0.70947005    0.30812999    0.11020000
opls_146-420    H    0.41034999    0.76999002    0.28177028    0.11430000
opls_146-421    H    0.42755007    0.80448005    0.27180987    0.11290000
opls_146-422    H    0.37821995    0.80502992    0.47036015    0.11690000
opls_146-423    H    0.36115995    0.77078000    0.48558009    0.11470000
opls_526-424    H    0.66819995    0.37892996    0.23271997    0.11480000
opls_146-425    H    0.64954998    0.39454003    0.24245969    0.11440000
opls_146-426    H    0.60030995    0.34282994    0.07152020    0.11430000
opls_526-427    H    0.61882992    0.32702996    0.06859042    0.11470000
opls_146-428    H    0.63426002    0.40617004    0.05361049    0.11500000
opls_146-429    H    0.61580004    0.42212004    0.06852973    0.11290000
opls_146-430    H    0.56847005    0.37131005    0.28286964    0.12050000
opls_146-431    H    0.58687003    0.35562003    0.27257956    0.11500000
opls_185-432    H    0.53116002    0.56314996    0.26427025    0.07120000
opls_185-433    H    0.54805001    0.55760997    0.17557968    0.07110000
opls_185-434    H    0.53594002    0.54695999    0.38994027    0.07600000
opls_185-435    H    0.56035005    0.53834003    0.13119026    0.07120000
opls_185-436    H    0.56140006    0.51820002    0.20689960    0.07120000
opls_185-437    H    0.55028004    0.52766002    0.35269046    0.07600000
opls_146-438    H    0.03964995    0.50280003    0.91372057    0.09900000
opls_146-439    H    0.07323993    0.51527994    0.92495000    0.11300000
opls_146-440    H    0.08216998    0.56576001    0.64901996    0.11500000
opls_146-441    H    0.04834999    0.55270993    0.62552933    0.11990000
opls_146-442    H    0.10020997    0.52315998    0.74470944    0.11290000
opls_146-443    H    0.13421997    0.53608993    0.76845938    0.11500000
opls_146-444    H    0.14154991    0.59095993    0.88878988    0.11500000
opls_146-445    H    0.10750006    0.57797006    0.87052016    0.11470000
opls_144-446    H    0.16627993    0.56229992    0.82575969    0.11220000
opls_146-447    H    0.55678997    0.04247003    0.58895954    0.12020000
opls_146-448    H    0.57573002    0.07654005    0.59095963    0.11330000
opls_146-449    H    0.53096000    0.07998998    0.86800971    0.11300000
opls_146-450    H    0.51257002    0.04591997    0.88106956    0.11720000
opls_144-451    H    0.61566004    0.16815002    0.74973999    0.11230000
opls_146-452    H    0.56270996    0.14075993    0.65651958    0.11470000
opls_146-453    H    0.54352001    0.10643994    0.65979006    0.11440000
opls_146-454    H    0.59257999    0.10254997    0.80548023    0.11430000
opls_146-455    H    0.61186005    0.13692001    0.79872960    0.11450000
opls_526-456    H    0.38029002    0.70904003    0.98486972    0.11260000
opls_146-457    H    0.39797005    0.74336002    0.98092059    0.11300000
opls_146-458    H    0.34815997    0.74412997    0.79775025    0.11920000
opls_526-459    H    0.33029996    0.70981999    0.80924038    0.11500000
opls_146-460    H    0.41115992    0.76911996    0.77826945    0.11440000
opls_146-461    H    0.42916002    0.80356995    0.76800006    0.11440000
opls_146-462    H    0.38065999    0.80570992    0.96668966    0.11570000
opls_146-463    H    0.36278996    0.77147002    0.98205029    0.11470000
opls_526-464    H    0.66794997    0.37876993    0.73275998    0.11450000
opls_146-465    H    0.64905998    0.39415004    0.74276039    0.11690000
opls_146-466    H    0.60013996    0.34230996    0.56873940    0.11470000
opls_526-467    H    0.61886001    0.32673994    0.56559030    0.11290000
opls_146-468    H    0.63332994    0.40556997    0.55467950    0.11430000
opls_146-469    H    0.61429996    0.42092992    0.57216988    0.11290000
opls_146-470    H    0.56784004    0.36960996    0.78989062    0.11350000
opls_146-471    H    0.58674005    0.35456005    0.77632040    0.11500000
opls_146-472    H    0.50957995    0.52386001    0.72707974    0.11690000
opls_146-473    H    0.52379994    0.50453000    0.71169014    0.11450000
opls_185-474    H    0.45168000    0.47423999    0.08322000    0.07110000
opls_185-475    H    0.43019003    0.45562002    0.98786019    0.07090000
opls_185-476    H    0.43499001    0.47944005    0.97060016    0.08630000
opls_185-477    H    0.46180996    0.43081995    0.99444943    0.07100000
opls_185-478    H    0.44249003    0.43441003    0.93945956    0.07120000
opls_185-479    H    0.46232007    0.45199004    0.07099052    0.07120000
opls_146-480    H    0.46723000    0.48661993    0.38978027    0.11300000
opls_146-481    H    0.50538999    0.54632003    0.45678994    0.12020000
opls_146-482    H    0.49095001    0.56614999    0.45722030    0.11440000
opls_146-483    H    0.44187994    0.52175993    0.18570010    0.11300000
opls_146-484    H    0.45690002    0.50271995    0.17700043    0.09440000
opls_146-485    H    0.48205992    0.58367995    0.25482986    0.11510000
opls_146-486    H    0.46733999    0.60330998    0.26339021    0.11450000
opls_146-487    H    0.41361997    0.55418005    0.38494972    0.11330000
opls_146-488    H    0.42833004    0.53467000    0.38140061    0.11920000
opls_144-489    H    0.43999995    0.60752001    0.31424059    0.11220000
opls_146-490    H    0.98549997    0.51916004    0.37172986    0.11440000
opls_146-491    H    0.96062998    0.50868997    0.13791053    0.09420000
opls_146-492    H    0.92663993    0.49583996    0.12489069    0.11720000
opls_146-493    H    0.91827004    0.44495003    0.38827952    0.11750000
opls_146-494    H    0.95232993    0.45849992    0.41089011    0.11870000
opls_144-495    H    0.83314998    0.44629001    0.24289005    0.11800000
opls_146-496    H    0.85906999    0.41923999    0.14925031    0.11450000
opls_146-497    H    0.89322001    0.43299997    0.16239982    0.11440000
opls_146-498    H    0.89921995    0.48679998    0.31041974    0.11470000
opls_146-499    H    0.86500997    0.47307003    0.29363008    0.11470000
opls_526-500    H    0.29055998    0.67067004    0.48248065    0.11290000
opls_146-501    H    0.25621001    0.65360000    0.47948053    0.11470000
opls_146-502    H    0.25622992    0.60337992    0.29767025    0.11420000
opls_526-503    H    0.29052998    0.62024002    0.30812999    0.11020000
opls_146-504    H    0.23001000    0.64036000    0.28177028    0.11430000
opls_146-505    H    0.19552002    0.62307001    0.27180987    0.11290000
opls_146-506    H    0.19497002    0.57319000    0.47036015    0.11690000
opls_146-507    H    0.22922003    0.59038003    0.48558009    0.11470000
opls_526-508    H    0.62107006    0.28927004    0.23271997    0.11470000
opls_146-509    H    0.60545996    0.25500997    0.24245969    0.11440000
opls_146-510    H    0.65717002    0.25748001    0.07152020    0.11430000
opls_526-511    H    0.67297004    0.29180000    0.06859042    0.11470000
opls_146-512    H    0.59383002    0.22808995    0.05361049    0.11500000
opls_146-513    H    0.57788002    0.19368001    0.06852973    0.11290000
opls_146-514    H    0.62869001    0.19715997    0.28286964    0.12050000
opls_146-515    H    0.64438005    0.23125000    0.27257956    0.11510000
opls_185-516    H    0.43685007    0.96801004    0.26427025    0.07120000
opls_185-517    H    0.44238998    0.99044004    0.17557968    0.07110000
opls_185-518    H    0.45304002    0.98897992    0.38994027    0.07600000
opls_185-519    H    0.46166001    0.02200998    0.13119026    0.07120000
opls_185-520    H    0.48180000    0.04319995    0.20689960    0.07120000
opls_185-521    H    0.47233999    0.02262005    0.35269046    0.07600000
opls_146-522    H    0.49719997    0.53685002    0.91372057    0.09900000
opls_146-523    H    0.48472007    0.55796005    0.92495000    0.11300000
opls_146-524    H    0.43424003    0.51640999    0.64901996    0.11500000
opls_146-525    H    0.44728997    0.49564003    0.62552933    0.11990000
opls_146-526    H    0.47683999    0.57704994    0.74470944    0.11290000
opls_146-527    H    0.46391003    0.59812994    0.76845938    0.11500000
opls_146-528    H    0.40904001    0.55058997    0.88878988    0.11500000
opls_146-529    H    0.42203005    0.52953000    0.87052016    0.11470000
opls_144-530    H    0.43770001    0.60397998    0.82575969    0.11220000
opls_146-531    H    0.95752993    0.51431992    0.58895954    0.12020000
opls_146-532    H    0.92345999    0.49918993    0.59095963    0.11330000
opls_146-533    H    0.92001002    0.45096996    0.86800971    0.11300000
opls_146-534    H    0.95407999    0.46664996    0.88106956    0.11720000
opls_144-535    H    0.83185005    0.44751002    0.74973999    0.11230000
opls_146-536    H    0.85923998    0.42195000    0.65651958    0.11470000
opls_146-537    H    0.89355999    0.43707999    0.65979006    0.11440000
opls_146-538    H    0.89745001    0.49002996    0.80548023    0.11430000
opls_146-539    H    0.86308006    0.47494001    0.79872960    0.11450000
opls_526-540    H    0.29095994    0.67124994    0.98486972    0.11260000
opls_146-541    H    0.25664000    0.65460992    0.98092059    0.11300000
opls_146-542    H    0.25586998    0.60403003    0.79775025    0.11920000
opls_526-543    H    0.29017999    0.62047999    0.80924038    0.11500000
opls_146-544    H    0.23088000    0.64203992    0.77826945    0.11440000
opls_146-545    H    0.19642993    0.62558996    0.76800006    0.11450000
opls_146-546    H    0.19429004    0.57495001    0.96668966    0.11570000
opls_146-547    H    0.22853005    0.59132002    0.98205029    0.11470000
opls_526-548    H    0.62123003    0.28917995    0.73275998    0.11450000
opls_146-549    H    0.60585004    0.25491001    0.74276039    0.11690000
opls_146-550    H    0.65768993    0.25782996    0.56873940    0.11470000
opls_526-551    H    0.67325998    0.29212006    0.56559030    0.11290000
opls_146-552    H    0.59443004    0.22776003    0.55467950    0.11430000
opls_146-553    H    0.57906996    0.19336996    0.57216988    0.11290000
opls_146-554    H    0.63038999    0.19822996    0.78989062    0.11340000
opls_146-555    H    0.64544005    0.23217999    0.77632040    0.11500000
opls_146-556    H    0.47613995    0.98571991    0.72707974    0.11690000
opls_146-557    H    0.49546996    0.01926994    0.71169014    0.11440000
opls_185-558    H    0.52575997    0.97744001    0.08322000    0.07110000
opls_185-559    H    0.54437995    0.97456998    0.98786019    0.07080000
opls_185-560    H    0.52056002    0.95555002    0.97060016    0.08630000
opls_185-561    H    0.56918002    0.03099004    0.99444943    0.07100000
opls_185-562    H    0.56558998    0.00807997    0.93945956    0.07120000
opls_185-563    H    0.54801000    0.01033006    0.07099052    0.07130000
opls_146-564    H    0.51337993    0.98060993    0.38978027    0.11300000
opls_146-565    H    0.45368002    0.95907002    0.45678994    0.12020000
opls_146-566    H    0.43384993    0.92479994    0.45722030    0.11440000
opls_146-567    H    0.47823998    0.92012000    0.18570010    0.11300000
opls_146-568    H    0.49728004    0.95418000    0.17700043    0.09440000
opls_146-569    H    0.41631997    0.89838002    0.25482986    0.11500000
opls_146-570    H    0.39668997    0.86402999    0.26339021    0.11450000
opls_146-571    H    0.44581997    0.85944000    0.38494972    0.11290000
opls_146-572    H    0.46533003    0.89366003    0.38140061    0.11920000
opls_144-573    H    0.39248001    0.83247993    0.31424059    0.11220000
opls_146-574    H    0.48083994    0.46633992    0.37172986    0.11440000
opls_146-575    H    0.49130993    0.45193999    0.13791053    0.09410000
opls_146-576    H    0.50415993    0.43079993    0.12489069    0.11720000
opls_146-577    H    0.55505001    0.47332001    0.38827952    0.11750000
opls_146-578    H    0.54149998    0.49382998    0.41089011    0.11870000
opls_144-579    H    0.55371003    0.38686005    0.24289005    0.11800000
opls_146-580    H    0.58076000    0.43983004    0.14925031    0.11450000
opls_146-581    H    0.56700003    0.46022002    0.16239982    0.11440000
opls_146-582    H    0.51319998    0.41241993    0.31041974    0.11470000
opls_146-583    H    0.52692998    0.39193999    0.29363008    0.11470000
opls_526-584    H    0.32932999    0.61988994    0.48248065    0.11290000
opls_146-585    H    0.34639993    0.60260996    0.47948053    0.11470000
opls_146-586    H    0.39661995    0.65284992    0.29767025    0.11420000
opls_526-587    H    0.37975993    0.67028993    0.30812999    0.11020000
opls_146-588    H    0.35964001    0.58964997    0.28177028    0.11440000
opls_146-589    H    0.37693003    0.57244994    0.27180987    0.11290000
opls_146-590    H    0.42680996    0.62177994    0.47036015    0.11690000
opls_146-591    H    0.40962003    0.63883997    0.48558009    0.11470000
opls_526-592    H    0.71072999    0.33180000    0.23271997    0.11470000
opls_146-593    H    0.74498994    0.35045000    0.24245969    0.11440000
opls_146-594    H    0.74252002    0.39969004    0.07152020    0.11430000
opls_526-595    H    0.70820004    0.38117004    0.06859042    0.11470000
opls_146-596    H    0.77190995    0.36574002    0.05361049    0.11500000
opls_146-597    H    0.80631993    0.38419996    0.06852973    0.11290000
opls_146-598    H    0.80283994    0.43152998    0.28286964    0.11720000
opls_146-599    H    0.76875003    0.41312996    0.27257956    0.11500000
opls_185-600    H    0.03199003    0.46883999    0.26427025    0.07120000
opls_185-601    H    0.00956001    0.45195000    0.17557968    0.07110000
opls_185-602    H    0.01102001    0.46405994    0.38994027    0.07600000
opls_185-603    H    0.97798994    0.43965000    0.13119026    0.07130000
opls_185-604    H    0.95680006    0.43860003    0.20689960    0.07130000
opls_185-605    H    0.97737998    0.44971993    0.35269046    0.07600000
opls_146-606    H    0.46314996    0.96034995    0.91372057    0.09900000
opls_146-607    H    0.44204000    0.92676001    0.92495000    0.11300000
opls_146-608    H    0.48358999    0.91783000    0.64901996    0.11500000
opls_146-609    H    0.50436004    0.95165004    0.62552933    0.11990000
opls_146-610    H    0.42294996    0.89978994    0.74470944    0.11290000
opls_146-611    H    0.40186994    0.86577999    0.76845938    0.11500000
opls_146-612    H    0.44941001    0.85844995    0.88878988    0.11500000
opls_146-613    H    0.47047001    0.89249994    0.87052016    0.11470000
opls_144-614    H    0.39601999    0.83371996    0.82575969    0.11220000
opls_146-615    H    0.48567998    0.44321004    0.58895954    0.12020000
opls_146-616    H    0.50080999    0.42427002    0.59095963    0.11330000
opls_146-617    H    0.54902991    0.46903992    0.86800971    0.11300000
opls_146-618    H    0.53334991    0.48742993    0.88106956    0.11720000
opls_144-619    H    0.55249004    0.38433996    0.74973999    0.11240000
opls_146-620    H    0.57804998    0.43728993    0.65651958    0.11470000
opls_146-621    H    0.56291993    0.45647993    0.65979006    0.11440000
opls_146-622    H    0.50996992    0.40741993    0.80548023    0.11430000
opls_146-623    H    0.52506001    0.38813998    0.79872960    0.11450000
opls_526-624    H    0.32875004    0.61971003    0.98486972    0.11260000
opls_146-625    H    0.34538999    0.60202992    0.98092059    0.11290000
opls_146-626    H    0.39597005    0.65183999    0.79775025    0.11920000
opls_526-627    H    0.37952004    0.66970002    0.80924038    0.11500000
opls_146-628    H    0.35796001    0.58883998    0.77826945    0.11440000
opls_146-629    H    0.37440998    0.57083995    0.76800006    0.11440000
opls_146-630    H    0.42505002    0.61933993    0.96668966    0.11580000
opls_146-631    H    0.40867999    0.63720996    0.98205029    0.11470000
opls_526-632    H    0.71081994    0.33204998    0.73275998    0.11450000
opls_146-633    H    0.74508998    0.35093994    0.74276039    0.11690000
opls_146-634    H    0.74216992    0.39985994    0.56873940    0.11470000
opls_526-635    H    0.70788001    0.38114001    0.56559030    0.11290000
opls_146-636    H    0.77224002    0.36667000    0.55467950    0.11430000
opls_146-637    H    0.80663000    0.38569997    0.57216988    0.11300000
opls_146-638    H    0.80177003    0.43215994    0.78989062    0.11340000
opls_146-639    H    0.76782002    0.41325996    0.77632040    0.11500000
opls_146-640    H    0.01428003    0.49041995    0.72707974    0.11690000
opls_146-641    H    0.98072997    0.47620006    0.71169014    0.11440000
opls_185-642    H    0.02256003    0.54832000    0.08322000    0.07110000
opls_185-643    H    0.02543002    0.56981000    0.98786019    0.07080000
opls_185-644    H    0.04444996    0.56500993    0.97060016    0.08630000
opls_185-645    H    0.96901002    0.53819001    0.99444943    0.07100000
opls_185-646    H    0.99191999    0.55751000    0.93945956    0.07120000
opls_185-647    H    0.98967000    0.53768004    0.07099052    0.07120000
