#======================================================================
# Crystal Data Generated By AuToFF
#----------------------------------------------------------------------

data_AuToFF_phase_1

_cell_length_a                         48.1440
_cell_length_b                         48.0750
_cell_length_c                         29.8460
_cell_angle_alpha                      90.00
_cell_angle_beta                       90.24
_cell_angle_gamma                      90.00
_symmetry_space_group_name_H-M_alt     'P 1'
_symmetry_space_group_IT_number        1

loop_
_space_group_symop_operation_xyz
   'x, y, z'

loop_
   _atom_site_label
   _atom_site_type_symbol
   _atom_site_fract_x
   _atom_site_fract_y
   _atom_site_fract_z
   _atom_site_charge
opls_142-0    C    0.11619001    0.10093001    0.32787996    0.06750000
opls_701-1    C    0.22512995    0.52125991    0.10392002    -0.25990000
opls_145-2    C    0.31192008    0.84671992    0.32253012    -0.10200000
opls_145-3    C    0.29121994    0.86653001    0.32940011    -0.12210000
opls_700-4    C    0.29804993    0.89450005    0.33714996    0.05480000
opls_145-5    C    0.32613998    0.90276006    0.33688995    -0.13570000
opls_145-6    C    0.34752995    0.88340010    0.33026991    -0.13550000
opls_145-7    C    0.37822005    0.64361997    0.24953008    -0.13600000
opls_145-8    C    0.36218008    0.62069995    0.23647998    -0.13450000
opls_700-9    C    0.33429990    0.62410005    0.22370998    0.05420000
opls_145-10    C    0.32265007    0.65092002    0.22451010    -0.13550000
opls_145-11    C    0.33868996    0.67385003    0.23744997    -0.13600000
opls_145-12    C    0.59350010    0.85671992    0.23879991    -0.13610000
opls_145-13    C    0.60965002    0.87948996    0.22567006    -0.13570000
opls_700-14    C    0.59810996    0.90634009    0.22404001    0.05400000
opls_145-15    C    0.57020000    0.90992990    0.23617005    -0.13340000
opls_145-16    C    0.55404998    0.88718003    0.24941985    -0.13590000
opls_145-17    C    0.58293008    0.64746999    0.33237005    -0.13630000
opls_145-18    C    0.60400996    0.62769007    0.33849990    -0.13670000
opls_700-19    C    0.63210008    0.63572002    0.33770984    0.05420000
opls_145-20    C    0.63865010    0.66371004    0.32961991    -0.12920000
opls_145-21    C    0.61763999    0.68344004    0.32356008    -0.13350000
opls_142-22    C    0.27541999    0.91438003    0.34745997    0.06730000
opls_142-23    C    0.65487010    0.61586001    0.34735007    0.06760000
opls_142-24    C    0.81465996    0.42947998    0.32713982    0.06750000
opls_174-25    C    0.95326006    0.25528008    0.24480010    0.03780000
opls_174-26    C    0.97784991    0.27580010    0.24499007    0.03780000
opls_197-27    C    0.96536008    0.26576994    0.31611982    0.49080000
opls_135-28    C    0.97940002    0.24412002    0.34630001    -0.52130000
opls_700-29    C    0.90488010    0.24041997    0.21281999    0.00410000
opls_145-30    C    0.90674006    0.21475008    0.23580987    -0.13510000
opls_145-31    C    0.88567000    0.19477005    0.23192992    -0.13590000
opls_700-32    C    0.86214995    0.19972002    0.20508991    0.06380000
opls_145-33    C    0.86029995    0.22504004    0.18186012    -0.12480000
opls_145-34    C    0.88129009    0.24496994    0.18560002    -0.13550000
opls_175-35    C    0.92692008    0.26373001    0.21563010    0.19890000
opls_145-36    C    0.75856997    0.07187998    0.16243993    0.18180000
opls_700-37    C    0.91239006    0.28989995    0.23488009    0.00540000
opls_145-38    C    0.89608999    0.28774997    0.27398986    -0.13570000
opls_145-39    C    0.88073992    0.31038003    0.28988995    -0.13170000
opls_700-40    C    0.88109999    0.33596006    0.26723010    0.06250000
opls_145-41    C    0.89753995    0.33847010    0.22872008    -0.12920000
opls_145-42    C    0.91280003    0.31585003    0.21264006    -0.13520000
opls_135-43    C    0.95102996    0.28778991    0.34503986    -0.52130000
opls_145-44    C    0.77184010    0.44761997    0.36059987    0.18070000
opls_700-45    C    0.02648003    0.29038003    0.21430998    0.00410000
opls_145-46    C    0.05031998    0.28557005    0.18810993    -0.13510000
opls_145-47    C    0.07151000    0.30532002    0.18510012    -0.12290000
opls_700-48    C    0.06955991    0.33075008    0.20792013    0.06250000
opls_145-49    C    0.04576990    0.33600000    0.23367992    -0.13590000
opls_145-50    C    0.02453996    0.31617993    0.23690986    -0.13510000
opls_175-51    C    0.00425997    0.26722995    0.21643993    0.19890000
opls_145-52    C    0.17438001    0.45747998    0.16466002    0.18230000
opls_700-53    C    0.01850991    0.24091004    0.23586984    0.00540000
opls_145-54    C    0.01821990    0.21507998    0.21323010    -0.13550000
opls_145-55    C    0.03331007    0.19235008    0.22949004    -0.12930000
opls_700-56    C    0.04948992    0.19461009    0.26853983    0.06250000
opls_145-57    C    0.04970998    0.22007010    0.29160007    -0.13250000
opls_145-58    C    0.03451004    0.24280998    0.27553983    -0.13630000
opls_145-59    C    0.15913001    0.08279002    0.36168009    0.18230000
opls_145-60    C    0.73358006    0.07874009    0.14025988    -0.18130000
opls_145-61    C    0.71629996    0.05780010    0.12334993    -0.13170000
opls_700-62    C    0.72361006    0.02968008    0.12803000    0.10790000
opls_145-63    C    0.74797998    0.02279002    0.15148996    -0.13550000
opls_145-64    C    0.76534004    0.04374997    0.16831983    -0.17530000
opls_145-65    C    0.19930990    0.45044992    0.14278989    -0.18130000
opls_145-66    C    0.21652003    0.47122995    0.12546012    -0.13140000
opls_700-67    C    0.20921002    0.49937993    0.12942015    0.11210000
opls_145-68    C    0.18490998    0.50647010    0.15258995    -0.13350000
opls_145-69    C    0.16761991    0.48567010    0.16985004    -0.17530000
opls_145-70    C    0.18320001    0.09115008    0.38450982    -0.17250000
opls_145-71    C    0.20012999    0.07164992    0.40615009    -0.13030000
opls_700-72    C    0.19341011    0.04324992    0.40501995    0.11380000
opls_145-73    C    0.17010010    0.03458991    0.38027002    -0.13600000
opls_145-74    C    0.15308008    0.05413001    0.35866995    -0.18820000
opls_145-75    C    0.74787997    0.43927010    0.38340983    -0.17250000
opls_145-76    C    0.73108002    0.45876006    0.40510002    -0.13030000
opls_700-77    C    0.73783006    0.48716006    0.40401980    0.11210000
opls_145-78    C    0.76102006    0.49582007    0.37931980    -0.13580000
opls_145-79    C    0.77791008    0.47627998    0.35767986    -0.18830000
opls_701-80    C    0.72243008    0.50752990    0.43327993    -0.26890000
opls_700-81    C    0.83960000    0.17862007    0.20106990    0.06770000
opls_700-82    C    0.86394009    0.35982007    0.28294993    0.06740000
opls_700-83    C    0.09232995    0.35159002    0.20457995    0.06050000
opls_700-84    C    0.06663992    0.17070993    0.28430992    0.06590000
opls_142-85    C    0.31805996    0.59965991    0.20852993    0.06740000
opls_145-86    C    0.12170004    0.34253001    0.20269995    -0.10200000
opls_145-87    C    0.14265991    0.36214997    0.19657981    -0.12210000
opls_700-88    C    0.13629993    0.39053999    0.19255981    0.05830000
opls_145-89    C    0.10845005    0.39933001    0.19554985    -0.13650000
opls_145-90    C    0.08682006    0.38018991    0.20149006    -0.13550000
opls_145-91    C    0.05623995    0.14340010    0.28227010    -0.13590000
opls_145-92    C    0.07253998    0.12089007    0.29627980    -0.13400000
opls_700-93    C    0.09961994    0.12511992    0.31250993    0.05420000
opls_145-94    C    0.11009991    0.15240000    0.31455980    -0.13600000
opls_145-95    C    0.09377007    0.17493001    0.30067005    -0.13560000
opls_145-96    C    0.83673007    0.35560000    0.29856991    -0.13540000
opls_145-97    C    0.82045998    0.37810005    0.31261011    -0.13610000
opls_700-98    C    0.83110000    0.40533001    0.31144009    0.05420000
opls_145-99    C    0.85824007    0.40956006    0.29583988    -0.13170000
opls_145-100    C    0.87446005    0.38709995    0.28169983    -0.13550000
opls_145-101    C    0.84581010    0.15009007    0.19755985    -0.13670000
opls_145-102    C    0.82456007    0.13047010    0.19180995    -0.13550000
opls_700-103    C    0.79664008    0.13898991    0.18957982    0.07330000
opls_145-104    C    0.79040996    0.16735996    0.19401998    -0.12920000
opls_145-105    C    0.81160000    0.18693999    0.19969986    -0.13350000
opls_142-106    C    0.15909992    0.41040000    0.18334007    0.06760000
opls_142-107    C    0.77382994    0.11905003    0.18064990    0.06770000
opls_174-108    C    0.47758007    0.75497993    0.28177991    0.06200000
opls_174-109    C    0.45389991    0.77645991    0.28171994    0.06200000
opls_197-110    C    0.46583993    0.76600000    0.21066993    0.49100000
opls_135-111    C    0.45138008    0.74462007    0.18051990    -0.52130000
opls_700-112    C    0.52518001    0.73862007    0.31501012    0.00640000
opls_145-113    C    0.52210010    0.71244992    0.29382987    -0.13310000
opls_145-114    C    0.54280994    0.69204992    0.29737008    -0.13610000
opls_700-115    C    0.56728006    0.69711992    0.32181980    0.06250000
opls_145-116    C    0.57046006    0.72298991    0.34298999    -0.12260000
opls_145-117    C    0.54984008    0.74330005    0.33965986    -0.13520000
opls_175-118    C    0.50340995    0.76238003    0.31199997    0.19260000
opls_145-119    C    0.67025005    0.56956006    0.37014998    0.18230000
opls_700-120    C    0.51787009    0.78880000    0.29399003    0.00420000
opls_145-121    C    0.53577998    0.78712990    0.25681990    -0.13550000
opls_145-122    C    0.55083995    0.81030993    0.24246006    -0.13140000
opls_700-123    C    0.54834991    0.83596006    0.26459991    0.06600000
opls_145-124    C    0.52978008    0.83805991    0.30063989    -0.13550000
opls_145-125    C    0.51476996    0.81484992    0.31515989    -0.13670000
opls_135-126    C    0.48052996    0.78781009    0.18180987    -0.52130000
opls_145-127    C    0.65795000    0.94890005    0.17758983    0.18260000
opls_700-128    C    0.40613993    0.79255996    0.31409005    0.00640000
opls_145-129    C    0.38135001    0.78762995    0.33794002    -0.13540000
opls_145-130    C    0.36062010    0.80784004    0.34095988    -0.12210000
opls_700-131    C    0.36386994    0.83386001    0.32040988    0.06280000
opls_145-132    C    0.38845991    0.83918003    0.29674989    -0.13600000
opls_145-133    C    0.40925008    0.81887010    0.29342010    -0.13310000
opls_175-134    C    0.42807992    0.76894997    0.31152989    0.19260000
opls_145-135    C    0.26046992    0.96066999    0.37090989    0.18070000
opls_700-136    C    0.41383991    0.74238003    0.29343987    0.00420000
opls_145-137    C    0.41693996    0.71644992    0.31501983    -0.13650000
opls_145-138    C    0.40210007    0.69310993    0.30042981    -0.13400000
opls_700-139    C    0.38365996    0.69494997    0.26393985    0.06630000
opls_145-140    C    0.38111004    0.72050005    0.24144987    -0.13240000
opls_145-141    C    0.39604996    0.74381009    0.25584991    -0.13530000
opls_145-142    C    0.27464992    0.58091004    0.17735999    0.18260000
opls_145-143    C    0.69547010    0.57725991    0.39088996    -0.18380000
opls_145-144    C    0.71307008    0.55701009    0.40907982    -0.13030000
opls_700-145    C    0.70590003    0.52874009    0.40705005    0.11140000
opls_145-146    C    0.68128997    0.52095996    0.38501006    -0.13550000
opls_145-147    C    0.66356998    0.54123994    0.36700011    -0.17550000
opls_145-148    C    0.23543999    0.95303006    0.39192997    -0.18390000
opls_145-149    C    0.21805000    0.97333001    0.41030010    -0.13280000
opls_700-150    C    0.22527992    0.00159002    0.40821002    0.11140000
opls_145-151    C    0.24977006    0.00929007    0.38608994    -0.13550000
opls_145-152    C    0.26724991    0.98896994    0.36784982    -0.17550000
opls_145-153    C    0.24991999    0.58907998    0.15626987    -0.17600000
opls_145-154    C    0.23308001    0.56959002    0.13448988    -0.12920000
opls_700-155    C    0.24055990    0.54137993    0.13378995    0.11200000
opls_145-156    C    0.26451001    0.53282995    0.15699996    -0.13580000
opls_145-157    C    0.28146003    0.55238003    0.17868011    -0.18450000
opls_145-158    C    0.68269005    0.94044992    0.15716012    -0.17600000
opls_145-159    C    0.69957002    0.95963994    0.13500989    -0.12920000
opls_700-160    C    0.69214008    0.98785003    0.13327999    0.10800000
opls_145-161    C    0.66819994    0.99671992    0.15586982    -0.13590000
opls_145-162    C    0.65120009    0.97746001    0.17792992    -0.18720000
opls_701-163    C    0.70762007    0.00756006    0.10299996    -0.26030000
opls_701-164    C    0.20893002    0.02287010    0.43434004    -0.26880000
opls_700-165    C    0.58951005    0.67567010    0.32549000    0.06570000
opls_700-166    C    0.56546006    0.86026001    0.25066994    0.06590000
opls_700-167    C    0.34150005    0.85512990    0.32378993    0.06050000
opls_700-168    C    0.36669998    0.67051004    0.24999012    0.06580000
opls_142-169    C    0.61446990    0.93059990    0.20861001    0.06750000
opls_142-170    C    0.88380999    0.60093001    0.67212004    0.06750000
opls_701-171    C    0.77487005    0.02125991    0.89607998    -0.25990000
opls_145-172    C    0.68807992    0.34671992    0.67746988    -0.10200000
opls_145-173    C    0.70878006    0.36653001    0.67059989    -0.12210000
opls_700-174    C    0.70195007    0.39450005    0.66285004    0.05490000
opls_145-175    C    0.67386002    0.40276006    0.66311005    -0.13570000
opls_145-176    C    0.65247005    0.38339990    0.66972975    -0.13550000
opls_145-177    C    0.62177995    0.14361997    0.75046992    -0.13600000
opls_145-178    C    0.63781992    0.12069995    0.76352002    -0.13450000
opls_700-179    C    0.66570010    0.12410005    0.77629002    0.05420000
opls_145-180    C    0.67734993    0.15092002    0.77548990    -0.13550000
opls_145-181    C    0.66131004    0.17385003    0.76255003    -0.13600000
opls_145-182    C    0.40650010    0.35671992    0.76119976    -0.13610000
opls_145-183    C    0.39034998    0.37948996    0.77432994    -0.13580000
opls_700-184    C    0.40189004    0.40634009    0.77595999    0.05400000
opls_145-185    C    0.42980000    0.40992990    0.76382995    -0.13350000
opls_145-186    C    0.44595002    0.38718003    0.75057981    -0.13590000
opls_145-187    C    0.41706992    0.14746999    0.66762995    -0.13630000
opls_145-188    C    0.39599004    0.12769007    0.66149977    -0.13670000
opls_700-189    C    0.36789992    0.13572002    0.66228983    0.05420000
opls_145-190    C    0.36135011    0.16371004    0.67037976    -0.12920000
opls_145-191    C    0.38236001    0.18344004    0.67643992    -0.13350000
opls_142-192    C    0.72458001    0.41438003    0.65254003    0.06730000
opls_142-193    C    0.34513010    0.11586001    0.65264993    0.06760000
opls_142-194    C    0.18534004    0.92947998    0.67285985    0.06750000
opls_174-195    C    0.04673994    0.75528008    0.75519990    0.03780000
opls_174-196    C    0.02215009    0.77580010    0.75500993    0.03780000
opls_197-197    C    0.03463992    0.76576994    0.68387984    0.49080000
opls_135-198    C    0.02059998    0.74412002    0.65369999    -0.52130000
opls_700-199    C    0.09512011    0.74041997    0.78718001    0.00410000
opls_145-200    C    0.09325994    0.71475008    0.76418980    -0.13510000
opls_145-201    C    0.11433000    0.69477005    0.76806975    -0.13590000
opls_700-202    C    0.13785005    0.69972002    0.79490976    0.06380000
opls_145-203    C    0.13970005    0.72504004    0.81813988    -0.12480000
opls_145-204    C    0.11871011    0.74496994    0.81439998    -0.13550000
opls_175-205    C    0.07307992    0.76373001    0.78436990    0.19890000
opls_145-206    C    0.24143003    0.57187998    0.83755973    0.18180000
opls_700-207    C    0.08760994    0.78989995    0.76511991    0.00540000
opls_145-208    C    0.10391000    0.78774997    0.72600981    -0.13570000
opls_145-209    C    0.11926008    0.81038003    0.71011005    -0.13160000
opls_700-210    C    0.11890001    0.83596006    0.73276990    0.06250000
opls_145-211    C    0.10246005    0.83847010    0.77127992    -0.12930000
opls_145-212    C    0.08719997    0.81585003    0.78735994    -0.13520000
opls_135-213    C    0.04897004    0.78778991    0.65495980    -0.52130000
opls_145-214    C    0.22816011    0.94761997    0.63939979    0.18070000
opls_700-215    C    0.97351997    0.79038003    0.78569002    0.00410000
opls_145-216    C    0.94968001    0.78557005    0.81188974    -0.13520000
opls_145-217    C    0.92849000    0.80532002    0.81489988    -0.12290000
opls_700-218    C    0.93044009    0.83075008    0.79207987    0.06250000
opls_145-219    C    0.95423010    0.83600000    0.76631975    -0.13590000
opls_145-220    C    0.97546004    0.81617993    0.76308981    -0.13510000
opls_175-221    C    0.99574003    0.76722995    0.78355973    0.19890000
opls_145-222    C    0.82561999    0.95747998    0.83533998    0.18230000
opls_700-223    C    0.98149009    0.74091004    0.76412982    0.00540000
opls_145-224    C    0.98178010    0.71507998    0.78676990    -0.13550000
opls_145-225    C    0.96668993    0.69235008    0.77050996    -0.12930000
opls_700-226    C    0.95051008    0.69461009    0.73145983    0.06250000
opls_145-227    C    0.95029002    0.72007010    0.70839993    -0.13250000
opls_145-228    C    0.96548996    0.74280998    0.72445984    -0.13640000
opls_145-229    C    0.84086999    0.58279002    0.63831991    0.18230000
opls_145-230    C    0.26641994    0.57874009    0.85973978    -0.18310000
opls_145-231    C    0.28370004    0.55779990    0.87664973    -0.13170000
opls_700-232    C    0.27638994    0.52968008    0.87197000    0.10790000
opls_145-233    C    0.25202002    0.52279002    0.84851004    -0.13550000
opls_145-234    C    0.23465996    0.54374997    0.83167983    -0.17530000
opls_145-235    C    0.80069010    0.95044992    0.85720977    -0.18130000
opls_145-236    C    0.78347997    0.97122995    0.87453988    -0.13140000
opls_700-237    C    0.79078998    0.99937993    0.87057985    0.11210000
opls_145-238    C    0.81509002    0.00647010    0.84741005    -0.13350000
opls_145-239    C    0.83238009    0.98567010    0.83014996    -0.17520000
opls_145-240    C    0.81679999    0.59115008    0.61548985    -0.17250000
opls_145-241    C    0.79987001    0.57164992    0.59384991    -0.13030000
opls_700-242    C    0.80659010    0.54324992    0.59498005    0.11370000
opls_145-243    C    0.82990011    0.53458991    0.61972998    -0.13590000
opls_145-244    C    0.84691992    0.55413001    0.64133005    -0.18820000
opls_145-245    C    0.25212003    0.93927010    0.61658984    -0.17250000
opls_145-246    C    0.26891998    0.95876006    0.59489998    -0.13030000
opls_700-247    C    0.26216993    0.98716006    0.59597986    0.11200000
opls_145-248    C    0.23897994    0.99582007    0.62067987    -0.13580000
opls_145-249    C    0.22208991    0.97627998    0.64231981    -0.18830000
opls_701-250    C    0.27756992    0.00752990    0.56672007    -0.26880000
opls_700-251    C    0.16040000    0.67862007    0.79892976    0.06770000
opls_700-252    C    0.13605991    0.85982007    0.71704974    0.06740000
opls_700-253    C    0.90767005    0.85159002    0.79542005    0.06050000
opls_700-254    C    0.93336008    0.67070993    0.71568974    0.06590000
opls_142-255    C    0.68194004    0.09965991    0.79146974    0.06730000
opls_145-256    C    0.87829996    0.84253001    0.79730005    -0.10200000
opls_145-257    C    0.85734009    0.86214997    0.80341985    -0.12210000
opls_700-258    C    0.86370007    0.89053999    0.80743986    0.05830000
opls_145-259    C    0.89154995    0.89933001    0.80444981    -0.13650000
opls_145-260    C    0.91317994    0.88018991    0.79850994    -0.13550000
opls_145-261    C    0.94376005    0.64339990    0.71772990    -0.13590000
opls_145-262    C    0.92746002    0.62089007    0.70371986    -0.13410000
opls_700-263    C    0.90038006    0.62511992    0.68749007    0.05420000
opls_145-264    C    0.88990009    0.65240000    0.68543987    -0.13600000
opls_145-265    C    0.90622993    0.67493001    0.69932995    -0.13560000
opls_145-266    C    0.16326993    0.85560000    0.70142975    -0.13550000
opls_145-267    C    0.17954002    0.87810005    0.68738989    -0.13610000
opls_700-268    C    0.16890000    0.90533001    0.68855991    0.05420000
opls_145-269    C    0.14175993    0.90956006    0.70415979    -0.13170000
opls_145-270    C    0.12553995    0.88709995    0.71829983    -0.13550000
opls_145-271    C    0.15419010    0.65009007    0.80243981    -0.13670000
opls_145-272    C    0.17543993    0.63047010    0.80819005    -0.13550000
opls_700-273    C    0.20335992    0.63898991    0.81041985    0.07330000
opls_145-274    C    0.20959004    0.66735996    0.80598002    -0.12920000
opls_145-275    C    0.18840000    0.68693999    0.80029981    -0.13350000
opls_142-276    C    0.84090008    0.91040000    0.81665993    0.06760000
opls_142-277    C    0.22617006    0.61905003    0.81934976    0.06780000
opls_174-278    C    0.52241993    0.25497993    0.71821975    0.06200000
opls_174-279    C    0.54610009    0.27645991    0.71828006    0.06200000
opls_197-280    C    0.53416007    0.26600000    0.78932973    0.49080000
opls_135-281    C    0.54861992    0.24462007    0.81947976    -0.52120000
opls_700-282    C    0.47481999    0.23862007    0.68498988    0.00640000
opls_145-283    C    0.47790010    0.21244992    0.70616979    -0.13310000
opls_145-284    C    0.45719006    0.19204992    0.70262992    -0.13610000
opls_700-285    C    0.43271994    0.19711992    0.67817987    0.06250000
opls_145-286    C    0.42953994    0.22298991    0.65701001    -0.12260000
opls_145-287    C    0.45015992    0.24330005    0.66033980    -0.13520000
opls_175-288    C    0.49659005    0.26238003    0.68800003    0.19260000
opls_145-289    C    0.32974995    0.06956006    0.62985002    0.18260000
opls_700-290    C    0.48212991    0.28880000    0.70600997    0.00420000
opls_145-291    C    0.46422002    0.28712990    0.74317976    -0.13550000
opls_145-292    C    0.44916005    0.31030993    0.75753994    -0.13140000
opls_700-293    C    0.45165009    0.33596006    0.73539976    0.06600000
opls_145-294    C    0.47021992    0.33805991    0.69935977    -0.13550000
opls_145-295    C    0.48523003    0.31484992    0.68483978    -0.13670000
opls_135-296    C    0.51947004    0.28781009    0.81818980    -0.52130000
opls_145-297    C    0.34205000    0.44890005    0.82240983    0.18260000
opls_700-298    C    0.59386007    0.29255996    0.68590995    0.00640000
opls_145-299    C    0.61864999    0.28762995    0.66205998    -0.13550000
opls_145-300    C    0.63938011    0.30784004    0.65903978    -0.12200000
opls_700-301    C    0.63613006    0.33386001    0.67958978    0.06280000
opls_145-302    C    0.61154009    0.33918003    0.70324978    -0.13600000
opls_145-303    C    0.59074992    0.31887010    0.70657990    -0.13310000
opls_175-304    C    0.57192008    0.26894997    0.68846978    0.19270000
opls_145-305    C    0.73953008    0.46066999    0.62908978    0.18070000
opls_700-306    C    0.58616009    0.24238003    0.70655980    0.00420000
opls_145-307    C    0.58306004    0.21644992    0.68497983    -0.13650000
opls_145-308    C    0.59789993    0.19310993    0.69956985    -0.13400000
opls_700-309    C    0.61634004    0.19494997    0.73605982    0.06630000
opls_145-310    C    0.61888996    0.22050005    0.75854980    -0.13250000
opls_145-311    C    0.60395004    0.24381009    0.74414975    -0.13530000
opls_145-312    C    0.72535008    0.08091004    0.82264001    0.18260000
opls_145-313    C    0.30453011    0.07725991    0.60911004    -0.18380000
opls_145-314    C    0.28692992    0.05701009    0.59091984    -0.13030000
opls_700-315    C    0.29409997    0.02874009    0.59294995    0.11140000
opls_145-316    C    0.31871003    0.02095996    0.61498994    -0.13550000
opls_145-317    C    0.33643002    0.04123994    0.63299989    -0.17550000
opls_145-318    C    0.76456001    0.45303006    0.60807003    -0.18390000
opls_145-319    C    0.78195000    0.47333001    0.58969990    -0.13280000
opls_700-320    C    0.77472008    0.50159002    0.59178998    0.11140000
opls_145-321    C    0.75022994    0.50929007    0.61391006    -0.13550000
opls_145-322    C    0.73275008    0.48896994    0.63214985    -0.17550000
opls_145-323    C    0.75008001    0.08907998    0.84372979    -0.17600000
opls_145-324    C    0.76691999    0.06959002    0.86550978    -0.12920000
opls_700-325    C    0.75944010    0.04137993    0.86620972    0.11200000
opls_145-326    C    0.73548999    0.03282995    0.84300004    -0.13580000
opls_145-327    C    0.71853997    0.05238003    0.82131989    -0.18450000
opls_145-328    C    0.31730995    0.44044992    0.84283988    -0.17600000
opls_145-329    C    0.30042998    0.45963994    0.86498978    -0.12920000
opls_700-330    C    0.30785992    0.48785003    0.86672001    0.10790000
opls_145-331    C    0.33180006    0.49671992    0.84412985    -0.13590000
opls_145-332    C    0.34880011    0.47746001    0.82206975    -0.18720000
opls_701-333    C    0.29237993    0.50756006    0.89700004    -0.26030000
opls_701-334    C    0.79106998    0.52287010    0.56565996    -0.27000000
opls_700-335    C    0.41048995    0.17567010    0.67451000    0.06570000
opls_700-336    C    0.43453994    0.36026001    0.74933006    0.06590000
opls_700-337    C    0.65849995    0.35512990    0.67621007    0.06050000
opls_700-338    C    0.63330002    0.17051004    0.75000988    0.06580000
opls_142-339    C    0.38553010    0.43059990    0.79138999    0.06750000
opls_750-340    N    0.77867005    0.09263006    0.17540996    -0.34590000
opls_750-341    N    0.78957993    0.42629995    0.34241001    -0.34840000
opls_750-342    N    0.15432003    0.43683994    0.17797984    -0.34850000
opls_750-343    N    0.14122994    0.10413001    0.34366982    -0.34810000
opls_750-344    N    0.64992010    0.58979990    0.35600994    -0.34840000
opls_750-345    N    0.64010992    0.92770005    0.19580985    -0.34700000
opls_750-346    N    0.28053994    0.94039002    0.35625989    -0.34540000
opls_750-347    N    0.29241007    0.60235008    0.19532000    -0.34580000
opls_750-348    N    0.22132995    0.59263006    0.82459004    -0.34580000
opls_750-349    N    0.21042007    0.92629995    0.65758999    -0.34850000
opls_750-350    N    0.84567997    0.93683994    0.82201983    -0.34850000
opls_750-351    N    0.85877006    0.60413001    0.65632985    -0.34820000
opls_750-352    N    0.35008010    0.08980010    0.64399006    -0.34840000
opls_750-353    N    0.35989008    0.42770005    0.80418981    -0.34670000
opls_750-354    N    0.71946006    0.44039002    0.64373978    -0.34540000
opls_750-355    N    0.70758993    0.10235008    0.80468000    -0.34590000
opls_186-356    O    0.94535007    0.25217993    0.28949994    -0.24080000
opls_171-357    O    0.99628007    0.26295996    0.17140001    -0.50100000
opls_186-358    O    0.98564006    0.27898991    0.28982997    -0.24060000
opls_171-359    O    0.93503995    0.26816994    0.17080997    -0.50100000
opls_186-360    O    0.48575000    0.75207010    0.23720002    -0.24300000
opls_171-361    O    0.43834991    0.76454997    0.35533011    -0.46320000
opls_186-362    O    0.44572990    0.77950993    0.23705996    -0.24080000
opls_171-363    O    0.49313003    0.76693001    0.35559983    -0.46320000
opls_186-364    O    0.05464993    0.75217993    0.71050006    -0.24070000
opls_171-365    O    0.00371993    0.76295996    0.82859999    -0.50080000
opls_186-366    O    0.01435994    0.77898991    0.71017003    -0.24060000
opls_171-367    O    0.06496005    0.76816994    0.82919003    -0.50100000
opls_186-368    O    0.51425000    0.25207010    0.76279998    -0.24300000
opls_171-369    O    0.56165009    0.26454997    0.64466989    -0.46320000
opls_186-370    O    0.55427010    0.27950993    0.76294004    -0.24090000
opls_171-371    O    0.50686997    0.26693001    0.64439984    -0.46310000
opls_144-372    H    0.10647997    0.08066999    0.32724000    0.11620000
opls_702-373    H    0.24042004    0.51142007    0.08102999    0.10540000
opls_702-374    H    0.21024007    0.53253999    0.08186998    0.10550000
opls_146-375    H    0.30611999    0.82531004    0.31631985    0.11250000
opls_146-376    H    0.26971007    0.85989995    0.32914982    0.11040000
opls_146-377    H    0.33167999    0.92426999    0.34284993    0.11300000
opls_146-378    H    0.36884997    0.89049007    0.33179006    0.11250000
opls_146-379    H    0.39976990    0.64036006    0.25857995    0.11290000
opls_146-380    H    0.37167999    0.60026999    0.23603000    0.11050000
opls_146-381    H    0.30118992    0.65424004    0.21497004    0.11290000
opls_146-382    H    0.32905003    0.69418991    0.23813013    0.11340000
opls_146-383    H    0.60305006    0.83635008    0.24009993    0.11300000
opls_146-384    H    0.63112001    0.87600000    0.21660009    0.11130000
opls_146-385    H    0.56077005    0.93038003    0.23501009    0.10960000
opls_146-386    H    0.53247992    0.89058991    0.25795005    0.11130000
opls_146-387    H    0.56148008    0.64083994    0.33437000    0.11330000
opls_146-388    H    0.59828997    0.60626001    0.34476981    0.11160000
opls_146-389    H    0.66010990    0.67043994    0.32867002    0.10860000
opls_146-390    H    0.62345010    0.70487010    0.31752002    0.11160000
opls_144-391    H    0.25437006    0.90652002    0.34851004    0.09120000
opls_144-392    H    0.67591007    0.62376994    0.34805001    0.09660000
opls_144-393    H    0.82453001    0.44967010    0.32725005    0.11750000
opls_176-394    H    0.96089006    0.23475008    0.23307983    0.05360000
opls_176-395    H    0.97026010    0.29630993    0.23300980    0.05350000
opls_140-396    H    0.98824006    0.22711992    0.32563006    0.16360000
opls_140-397    H    0.96406992    0.23480000    0.36961992    0.16400000
opls_140-398    H    0.99642002    0.25382007    0.36614003    0.16140000
opls_146-399    H    0.92413998    0.20965991    0.25717003    0.11440000
opls_146-400    H    0.88762990    0.17554009    0.25054999    0.11330000
opls_146-401    H    0.84272005    0.22936994    0.16021985    0.11130000
opls_146-402    H    0.87909005    0.26425003    0.16713005    0.10960000
opls_146-403    H    0.89469000    0.26823006    0.29189995    0.11560000
opls_146-404    H    0.86851007    0.30779990    0.31996995    0.11120000
opls_146-405    H    0.89797009    0.35777993    0.21006985    0.11130000
opls_146-406    H    0.92432010    0.31906001    0.18214995    0.11170000
opls_140-407    H    0.93373007    0.27838003    0.36434982    0.16140000
opls_140-408    H    0.94252993    0.30461009    0.32349005    0.16360000
opls_140-409    H    0.96610996    0.29732002    0.36878998    0.16140000
opls_146-410    H    0.05259000    0.26621009    0.16993011    0.10860000
opls_146-411    H    0.08930993    0.30076006    0.16430988    0.11330000
opls_146-412    H    0.04374000    0.35532002    0.25201989    0.11130000
opls_146-413    H    0.00693002    0.32147998    0.25744009    0.11440000
opls_146-414    H    0.00696997    0.21208008    0.18226990    0.11180000
opls_146-415    H    0.03300990    0.17315008    0.21051983    0.11160000
opls_146-416    H    0.06175001    0.22247010    0.32207008    0.11330000
opls_146-417    H    0.03586000    0.26224004    0.29371997    0.11260000
opls_172-418    H    0.98211006    0.24812002    0.16980011    0.33550000
opls_172-419    H    0.94914990    0.28306999    0.16961014    0.33550000
opls_146-420    H    0.72786995    0.10010005    0.13382982    0.11540000
opls_146-421    H    0.69777006    0.06362995    0.10491983    0.11270000
opls_146-422    H    0.75418009    0.00123994    0.15497991    0.10860000
opls_146-423    H    0.78460000    0.03807010    0.18482001    0.10860000
opls_146-424    H    0.20505998    0.42904004    0.13690999    0.11360000
opls_146-425    H    0.23498993    0.46522995    0.10725986    0.10860000
opls_146-426    H    0.17871999    0.52804992    0.15553007    0.10860000
opls_146-427    H    0.14842009    0.49148996    0.18613008    0.11160000
opls_146-428    H    0.18833001    0.11304004    0.38689006    0.11090000
opls_146-429    H    0.21798003    0.07887010    0.42504994    0.10860000
opls_146-430    H    0.16454002    0.01277005    0.37904002    0.11090000
opls_146-431    H    0.13517007    0.04657993    0.34050990    0.10960000
opls_146-432    H    0.74272998    0.41737993    0.38570999    0.10960000
opls_146-433    H    0.71330992    0.45155008    0.42394995    0.11160000
opls_146-434    H    0.76658003    0.51762995    0.37811996    0.11120000
opls_146-435    H    0.79572010    0.48383006    0.33947994    0.11530000
opls_702-436    H    0.73782008    0.51800000    0.45547003    0.10540000
opls_702-437    H    0.70796992    0.49640998    0.45606006    0.10540000
opls_144-438    H    0.32850011    0.57978991    0.20662011    0.11810000
opls_146-439    H    0.12715998    0.32079002    0.20615002    0.11300000
opls_146-440    H    0.16398996    0.35509995    0.19453999    0.10960000
opls_146-441    H    0.10327001    0.42116006    0.19237988    0.11120000
opls_146-442    H    0.06566009    0.38778991    0.20223992    0.11330000
opls_146-443    H    0.03534991    0.13944004    0.27031999    0.11330000
opls_146-444    H    0.06390994    0.10011004    0.29457001    0.10860000
opls_146-445    H    0.13090007    0.15636006    0.32693007    0.11130000
opls_146-446    H    0.10255007    0.19564992    0.30205986    0.11120000
opls_146-447    H    0.82783993    0.33491004    0.29931005    0.10860000
opls_146-448    H    0.79959990    0.37413999    0.32441983    0.11330000
opls_146-449    H    0.86697998    0.43030993    0.29475999    0.11090000
opls_146-450    H    0.89541007    0.39105003    0.27028983    0.11130000
opls_146-451    H    0.86715005    0.14299990    0.19803999    0.11300000
opls_146-452    H    0.83004991    0.10874009    0.18833006    0.11130000
opls_146-453    H    0.76907006    0.17445991    0.19251994    0.10960000
opls_146-454    H    0.80604002    0.20866001    0.20305008    0.11130000
opls_144-455    H    0.17992005    0.40219990    0.18011013    0.11670000
opls_144-456    H    0.75295002    0.12716006    0.17759989    0.08980000
opls_176-457    H    0.46911003    0.73476006    0.29316010    0.04820000
opls_176-458    H    0.46236999    0.79666001    0.29337989    0.04920000
opls_140-459    H    0.44213001    0.72786001    0.20126993    0.16400000
opls_140-460    H    0.46652000    0.73495996    0.15723014    0.16400000
opls_140-461    H    0.43457005    0.75466001    0.16066983    0.16140000
opls_146-462    H    0.50399999    0.70733001    0.27405988    0.11170000
opls_146-463    H    0.53986006    0.67240998    0.28025005    0.11130000
opls_146-464    H    0.58889001    0.72749995    0.36259982    0.11120000
opls_146-465    H    0.55344991    0.76306001    0.35607996    0.11330000
opls_146-466    H    0.53858997    0.76760998    0.23932997    0.11330000
opls_146-467    H    0.56452002    0.80811004    0.21396990    0.11160000
opls_146-468    H    0.52739995    0.85751992    0.31849001    0.11160000
opls_146-469    H    0.50092995    0.81737993    0.34333007    0.11250000
opls_140-470    H    0.46551999    0.79796006    0.15863001    0.16140000
opls_140-471    H    0.49736005    0.77802995    0.16188005    0.16150000
opls_140-472    H    0.48978992    0.80415996    0.20349001    0.16360000
opls_146-473    H    0.37775005    0.76776994    0.35397983    0.11300000
opls_146-474    H    0.34209010    0.80311992    0.35993009    0.11130000
opls_146-475    H    0.39144997    0.85893999    0.28005002    0.11140000
opls_146-476    H    0.42744998    0.82416994    0.27426996    0.11440000
opls_146-477    H    0.43065001    0.71412002    0.34359007    0.11510000
opls_146-478    H    0.40448001    0.67374997    0.31858986    0.11160000
opls_146-479    H    0.36746993    0.72252002    0.21270004    0.11130000
opls_146-480    H    0.39316991    0.76323994    0.23811003    0.11250000
opls_172-481    H    0.42283008    0.75912990    0.37526997    0.33640000
opls_172-482    H    0.50859991    0.77254997    0.37568980    0.33650000
opls_146-483    H    0.70112010    0.59884992    0.39521989    0.11640000
opls_146-484    H    0.73178995    0.56355008    0.42636001    0.10860000
opls_146-485    H    0.67523006    0.49928008    0.38351001    0.11100000
opls_146-486    H    0.64416007    0.53491004    0.35162003    0.11270000
opls_146-487    H    0.22976007    0.93146001    0.39628001    0.11350000
opls_146-488    H    0.19944006    0.96684992    0.42768985    0.10860000
opls_146-489    H    0.25592011    0.03094997    0.38463982    0.11040000
opls_146-490    H    0.28654991    0.99523994    0.35230991    0.11270000
opls_146-491    H    0.24423002    0.61087010    0.15524996    0.11090000
opls_146-492    H    0.21470997    0.57670993    0.11683007    0.11090000
opls_146-493    H    0.27061004    0.51115008    0.15684014    0.11160000
opls_146-494    H    0.29992010    0.54499990    0.19558001    0.11540000
opls_146-495    H    0.68834992    0.91864004    0.15690983    0.10960000
opls_146-496    H    0.71795005    0.95228996    0.11787009    0.11090000
opls_146-497    H    0.66214006    0.01840998    0.15494003    0.10860000
opls_146-498    H    0.63273998    0.98507998    0.19430981    0.11490000
opls_702-499    H    0.69237001    0.01718003    0.07958992    0.10540000
opls_702-500    H    0.72247010    0.99598003    0.08149002    0.10540000
opls_702-501    H    0.22352997    0.03397005    0.45711984    0.10540000
opls_702-502    H    0.19363000    0.01244992    0.45652981    0.10540000
opls_144-503    H    0.60409999    0.95049007    0.20615002    0.11670000
opls_144-504    H    0.89352003    0.58066999    0.67276000    0.11620000
opls_702-505    H    0.75957996    0.01142007    0.91897001    0.10540000
opls_702-506    H    0.78975993    0.03253999    0.91813002    0.10540000
opls_146-507    H    0.69388001    0.32531004    0.68367981    0.11250000
opls_146-508    H    0.73028993    0.35989995    0.67084984    0.11040000
opls_146-509    H    0.66832001    0.42426999    0.65715007    0.11300000
opls_146-510    H    0.63115003    0.39049007    0.66820994    0.11250000
opls_146-511    H    0.60023010    0.14036006    0.74142005    0.11290000
opls_146-512    H    0.62832001    0.10026999    0.76397000    0.11050000
opls_146-513    H    0.69881008    0.15424004    0.78502996    0.11290000
opls_146-514    H    0.67094997    0.19418991    0.76186987    0.11330000
opls_146-515    H    0.39694994    0.33635008    0.75989974    0.11300000
opls_146-516    H    0.36887999    0.37600000    0.78339991    0.11130000
opls_146-517    H    0.43922995    0.43038003    0.76498991    0.10960000
opls_146-518    H    0.46752008    0.39058991    0.74204995    0.11130000
opls_146-519    H    0.43851992    0.14083994    0.66563000    0.11330000
opls_146-520    H    0.40171003    0.10626001    0.65522986    0.11160000
opls_146-521    H    0.33989010    0.17043994    0.67132998    0.10860000
opls_146-522    H    0.37655011    0.20487010    0.68247998    0.11160000
opls_144-523    H    0.74562994    0.40652002    0.65148996    0.09110000
opls_144-524    H    0.32408993    0.12376994    0.65194999    0.09660000
opls_144-525    H    0.17546999    0.94967010    0.67274995    0.11750000
opls_176-526    H    0.03910994    0.73475008    0.76691984    0.05350000
opls_176-527    H    0.02974011    0.79630993    0.76698986    0.05350000
opls_140-528    H    0.01175994    0.72711992    0.67436994    0.16360000
opls_140-529    H    0.03593008    0.73480000    0.63038008    0.16400000
opls_140-530    H    0.00357998    0.75382007    0.63385997    0.16140000
opls_146-531    H    0.07586002    0.70965991    0.74282997    0.11440000
opls_146-532    H    0.11237010    0.67554009    0.74945001    0.11330000
opls_146-533    H    0.15727995    0.72936994    0.83977981    0.11130000
opls_146-534    H    0.12090995    0.76425003    0.83286995    0.10960000
opls_146-535    H    0.10531000    0.76823006    0.70810005    0.11550000
opls_146-536    H    0.13148993    0.80780010    0.68003005    0.11120000
opls_146-537    H    0.10203011    0.85777993    0.78992982    0.11130000
opls_146-538    H    0.07568010    0.81906001    0.81785005    0.11170000
opls_140-539    H    0.06626993    0.77838003    0.63564984    0.16140000
opls_140-540    H    0.05747007    0.80461009    0.67650995    0.16360000
opls_140-541    H    0.03389004    0.79732002    0.63121002    0.16150000
opls_146-542    H    0.94741000    0.76621009    0.83006989    0.10860000
opls_146-543    H    0.91069007    0.80076006    0.83568978    0.11300000
opls_146-544    H    0.95626000    0.85532002    0.74797978    0.11130000
opls_146-545    H    0.99306998    0.82147998    0.74255991    0.11440000
opls_146-546    H    0.99303003    0.71208008    0.81772977    0.11170000
opls_146-547    H    0.96699010    0.67315008    0.78947984    0.11160000
opls_146-548    H    0.93824999    0.72247010    0.67792992    0.11330000
opls_146-549    H    0.96414000    0.76224004    0.70628003    0.11260000
opls_172-550    H    0.01788994    0.74812002    0.83019989    0.33550000
opls_172-551    H    0.05085010    0.78306999    0.83038986    0.33550000
opls_146-552    H    0.27213005    0.60010005    0.86616985    0.11540000
opls_146-553    H    0.30222994    0.56362995    0.89507983    0.11270000
opls_146-554    H    0.24581991    0.50123994    0.84501976    0.10870000
opls_146-555    H    0.21540000    0.53807010    0.81517999    0.10860000
opls_146-556    H    0.79494002    0.92904004    0.86309001    0.11350000
opls_146-557    H    0.76501006    0.96522995    0.89273980    0.10860000
opls_146-558    H    0.82128001    0.02804992    0.84446993    0.10860000
opls_146-559    H    0.85157991    0.99148996    0.81386992    0.11160000
opls_146-560    H    0.81166999    0.61304004    0.61310994    0.11090000
opls_146-561    H    0.78201997    0.57887010    0.57495006    0.10860000
opls_146-562    H    0.83545998    0.51277005    0.62095998    0.11090000
opls_146-563    H    0.86482993    0.54657993    0.65948976    0.10960000
opls_146-564    H    0.25727002    0.91737993    0.61429001    0.10960000
opls_146-565    H    0.28669008    0.95155008    0.57605005    0.11160000
opls_146-566    H    0.23341997    0.01762995    0.62188004    0.11120000
opls_146-567    H    0.20428011    0.98383006    0.66052006    0.11530000
opls_702-568    H    0.26217992    0.01800000    0.54452997    0.10540000
opls_702-569    H    0.29203008    0.99640998    0.54393994    0.10540000
opls_144-570    H    0.67150010    0.07978991    0.79337989    0.11810000
opls_146-571    H    0.87284002    0.82079002    0.79384998    0.11300000
opls_146-572    H    0.83601004    0.85509995    0.80546001    0.10960000
opls_146-573    H    0.89672999    0.92116006    0.80761978    0.11120000
opls_146-574    H    0.93433991    0.88778991    0.79775975    0.11330000
opls_146-575    H    0.96465009    0.63944004    0.72968001    0.11330000
opls_146-576    H    0.93609006    0.60011004    0.70542999    0.10860000
opls_146-577    H    0.86909993    0.65636006    0.67306993    0.11130000
opls_146-578    H    0.89744993    0.69564992    0.69793981    0.11120000
opls_146-579    H    0.17216007    0.83491004    0.70068995    0.10860000
opls_146-580    H    0.20040010    0.87413999    0.67557983    0.11330000
opls_146-581    H    0.13302002    0.93030993    0.70524001    0.11100000
opls_146-582    H    0.10458993    0.89105003    0.72970983    0.11130000
opls_146-583    H    0.13284995    0.64299990    0.80196001    0.11300000
opls_146-584    H    0.16995009    0.60874009    0.81166994    0.11130000
opls_146-585    H    0.23092994    0.67445991    0.80747973    0.10960000
opls_146-586    H    0.19395998    0.70866001    0.79694992    0.11130000
opls_144-587    H    0.82007995    0.90220010    0.81988987    0.11670000
opls_144-588    H    0.24704998    0.62716006    0.82239978    0.08980000
opls_176-589    H    0.53088997    0.23476006    0.70683990    0.04820000
opls_176-590    H    0.53763001    0.29666001    0.70661977    0.04920000
opls_140-591    H    0.55786998    0.22786001    0.79872973    0.16400000
opls_140-592    H    0.53348000    0.23495996    0.84276986    0.16400000
opls_140-593    H    0.56542995    0.25466001    0.83932983    0.16140000
opls_146-594    H    0.49600001    0.20733001    0.72593978    0.11170000
opls_146-595    H    0.46013994    0.17240998    0.71974995    0.11130000
opls_146-596    H    0.41110999    0.22749995    0.63739984    0.11130000
opls_146-597    H    0.44655009    0.26306001    0.64392004    0.11340000
opls_146-598    H    0.46141003    0.26760998    0.76067003    0.11330000
opls_146-599    H    0.43547998    0.30811004    0.78602977    0.11160000
opls_146-600    H    0.47260005    0.35751992    0.68150999    0.11160000
opls_146-601    H    0.49907005    0.31737993    0.65666993    0.11250000
opls_140-602    H    0.53448001    0.29796006    0.84136999    0.16140000
opls_140-603    H    0.50263995    0.27802995    0.83811995    0.16140000
opls_140-604    H    0.51021008    0.30415996    0.79650999    0.16360000
opls_146-605    H    0.62224994    0.26776994    0.64601983    0.11290000
opls_146-606    H    0.65791011    0.30311992    0.64006991    0.11130000
opls_146-607    H    0.60855003    0.35893999    0.71994998    0.11130000
opls_146-608    H    0.57255002    0.32416994    0.72573004    0.11440000
opls_146-609    H    0.56934999    0.21412002    0.65640993    0.11510000
opls_146-610    H    0.59551999    0.17374997    0.68140981    0.11170000
opls_146-611    H    0.63253007    0.22252002    0.78729996    0.11130000
opls_146-612    H    0.60683009    0.26323994    0.76188997    0.11250000
opls_172-613    H    0.57716992    0.25912990    0.62473003    0.33640000
opls_172-614    H    0.49140009    0.27254997    0.62430987    0.33640000
opls_146-615    H    0.29888011    0.09884992    0.60477978    0.11640000
opls_146-616    H    0.26821005    0.06355008    0.57363999    0.10860000
opls_146-617    H    0.32476994    0.99928008    0.61648999    0.11090000
opls_146-618    H    0.35583993    0.03491004    0.64837997    0.11280000
opls_146-619    H    0.77023993    0.43146001    0.60371999    0.11350000
opls_146-620    H    0.80055994    0.46684992    0.57230982    0.10860000
opls_146-621    H    0.74408010    0.53094997    0.61535985    0.11040000
opls_146-622    H    0.71345009    0.49523994    0.64768975    0.11270000
opls_146-623    H    0.75576998    0.11087010    0.84475004    0.11090000
opls_146-624    H    0.78529003    0.07670993    0.88316993    0.11090000
opls_146-625    H    0.72938996    0.01115008    0.84315986    0.11160000
opls_146-626    H    0.70008011    0.04499990    0.80441999    0.11550000
opls_146-627    H    0.31165008    0.41864004    0.84308983    0.10960000
opls_146-628    H    0.28204995    0.45228996    0.88212991    0.11090000
opls_146-629    H    0.33785994    0.51840998    0.84505997    0.10860000
opls_146-630    H    0.36726002    0.48507998    0.80568986    0.11490000
opls_702-631    H    0.30762999    0.51718003    0.92040975    0.10540000
opls_702-632    H    0.27753011    0.49598003    0.91850998    0.10540000
opls_702-633    H    0.77647003    0.53397005    0.54287982    0.10540000
opls_702-634    H    0.80637000    0.51244992    0.54346986    0.10540000
opls_144-635    H    0.39590001    0.45049007    0.79384998    0.11670000
