#======================================================================
# Crystal Data Generated By AuToFF
#----------------------------------------------------------------------

data_AuToFF_phase_1

_cell_length_a                         37.5800
_cell_length_b                         37.5800
_cell_length_c                         7.1500
_cell_angle_alpha                      90.00
_cell_angle_beta                       90.00
_cell_angle_gamma                      90.00
_symmetry_space_group_name_H-M_alt     'P 1'
_symmetry_space_group_IT_number        1

loop_
_space_group_symop_operation_xyz
   'x, y, z'

loop_
   _atom_site_label
   _atom_site_type_symbol
   _atom_site_fract_x
   _atom_site_fract_y
   _atom_site_fract_z
   _atom_site_charge
opls_700-0    C    0.14953991    0.95813997    0.97080979    0.03510000
opls_700-1    C    0.17750000    0.96120011    0.10279021    0.03880000
opls_145-2    C    0.17603991    0.94129005    0.26946014    -0.07320000
opls_145-3    C    0.14772006    0.91843002    0.30437063    -0.10930000
opls_263-4    C    0.12039995    0.91527994    0.17353986    0.17210000
opls_145-5    C    0.12122006    0.93508010    0.00832028    -0.17250000
opls_700-6    C    0.15015993    0.97860005    0.80573007    0.03670000
opls_145-7    C    0.17860990    0.00146009    0.77191049    -0.18270000
opls_166-8    C    0.20631001    0.00443002    0.89990070    0.32850000
opls_700-9    C    0.20600000    0.98451996    0.06665035    -0.04910000
opls_700-10    C    0.23474987    0.98960005    0.20586014    -0.04470000
opls_166-11    C    0.23644013    0.02158994    0.30658042    0.35490000
opls_145-12    C    0.26201011    0.02636988    0.44487972    -0.18500000
opls_700-13    C    0.28639995    0.99972006    0.48660000    -0.00020000
opls_700-14    C    0.28582012    0.96779005    0.38353986    0.03540000
opls_700-15    C    0.25996009    0.96275998    0.24160000    0.03740000
opls_145-16    C    0.25998004    0.93106998    0.13794965    -0.09000000
opls_145-17    C    0.28496993    0.90465993    0.17424056    -0.10950000
opls_263-18    C    0.31032996    0.90960990    0.31437063    0.17210000
opls_145-19    C    0.31079989    0.94098004    0.41772028    -0.17260000
opls_142-20    C    0.12065008    0.97713012    0.67174965    0.02130000
opls_145-21    C    0.09025013    0.99760990    0.39900979    0.23860000
opls_700-22    C    0.31091990    0.00546993    0.64393986    0.08460000
opls_145-23    C    0.08841990    0.02362001    0.26022937    -0.10660000
opls_145-24    C    0.05982996    0.02439010    0.13624056    -0.09000000
opls_700-25    C    0.03267004    0.99894997    0.14739021    0.07230000
opls_145-26    C    0.03496993    0.97272991    0.28714965    -0.09140000
opls_145-27    C    0.06336988    0.97208994    0.41188951    -0.10650000
opls_145-28    C    0.31148004    0.98151011    0.79395944    -0.09000000
opls_145-29    C    0.33455003    0.98679989    0.94386993    -0.10760000
opls_700-30    C    0.35727009    0.01610990    0.94515944    0.05420000
opls_145-31    C    0.35644013    0.04034992    0.79685035    -0.09150000
opls_145-32    C    0.33313997    0.03518999    0.64693986    -0.08990000
opls_142-33    C    0.38329989    0.02067988    0.09471049    0.01680000
opls_145-34    C    0.41186988    0.00072006    0.37466014    0.23820000
opls_145-35    C    0.41389010    0.97415008    0.51060000    -0.10880000
opls_145-36    C    0.44144997    0.97420995    0.64127972    -0.09140000
opls_700-37    C    0.46744013    0.00094997    0.63900000    0.07240000
opls_145-38    C    0.46479005    0.02779005    0.50260000    -0.09130000
opls_145-39    C    0.43736003    0.02772991    0.37206014    -0.10840000
opls_700-40    C    0.64953991    0.45813997    0.47080979    0.03510000
opls_700-41    C    0.67750000    0.46120011    0.60279021    0.03880000
opls_145-42    C    0.67603991    0.44129005    0.76946014    -0.07320000
opls_145-43    C    0.64772006    0.41843002    0.80437063    -0.10930000
opls_263-44    C    0.62039995    0.41527994    0.67353986    0.17210000
opls_145-45    C    0.62122006    0.43508010    0.50832028    -0.17250000
opls_700-46    C    0.65015993    0.47860005    0.30573007    0.03670000
opls_145-47    C    0.67860990    0.50146009    0.27191049    -0.18270000
opls_166-48    C    0.70631001    0.50443002    0.39989930    0.32860000
opls_700-49    C    0.70600000    0.48451996    0.56665035    -0.04910000
opls_700-50    C    0.73475013    0.48960005    0.70586014    -0.04480000
opls_166-51    C    0.73644013    0.52158994    0.80658042    0.35490000
opls_145-52    C    0.76201011    0.52636988    0.94487972    -0.18500000
opls_700-53    C    0.78639995    0.49972006    0.98660000    -0.00020000
opls_700-54    C    0.78582012    0.46779005    0.88353986    0.03540000
opls_700-55    C    0.75996009    0.46275998    0.74160000    0.03740000
opls_145-56    C    0.75998004    0.43106998    0.63794965    -0.09000000
opls_145-57    C    0.78496993    0.40465993    0.67424056    -0.10950000
opls_263-58    C    0.81032996    0.40960990    0.81437063    0.17210000
opls_145-59    C    0.81079989    0.44098004    0.91772028    -0.17260000
opls_142-60    C    0.62065008    0.47713012    0.17174965    0.02130000
opls_145-61    C    0.59025013    0.49760990    0.89900979    0.23860000
opls_700-62    C    0.81091990    0.50546993    0.14393986    0.08470000
opls_145-63    C    0.58841990    0.52362001    0.76022937    -0.10660000
opls_145-64    C    0.55982996    0.52439010    0.63624056    -0.09000000
opls_700-65    C    0.53267004    0.49894997    0.64739021    0.07230000
opls_145-66    C    0.53496993    0.47272991    0.78714965    -0.09140000
opls_145-67    C    0.56336988    0.47208994    0.91188951    -0.10650000
opls_145-68    C    0.81148004    0.48151011    0.29395944    -0.09000000
opls_145-69    C    0.83455003    0.48679989    0.44386993    -0.10760000
opls_700-70    C    0.85727009    0.51610990    0.44515944    0.05420000
opls_145-71    C    0.85644013    0.54034992    0.29685035    -0.09150000
opls_145-72    C    0.83313997    0.53518999    0.14693986    -0.08990000
opls_142-73    C    0.88329989    0.52067988    0.59471049    0.01680000
opls_145-74    C    0.91186988    0.50072006    0.87466014    0.23820000
opls_145-75    C    0.91389010    0.47415008    0.01060000    -0.10880000
opls_145-76    C    0.94144997    0.47420995    0.14127972    -0.09140000
opls_700-77    C    0.96744013    0.50094997    0.13900000    0.07240000
opls_145-78    C    0.96479005    0.52779005    0.00260000    -0.09130000
opls_145-79    C    0.93736003    0.52772991    0.87206014    -0.10840000
opls_700-80    C    0.35046009    0.54186003    0.47080979    0.03510000
opls_700-81    C    0.32250000    0.53879989    0.60279021    0.03880000
opls_145-82    C    0.32396009    0.55870995    0.76946014    -0.07320000
opls_145-83    C    0.35227994    0.58156998    0.80437063    -0.10930000
opls_263-84    C    0.37960005    0.58472006    0.67353986    0.17210000
opls_145-85    C    0.37877994    0.56491990    0.50832028    -0.17250000
opls_700-86    C    0.34984007    0.52139995    0.30573007    0.03670000
opls_145-87    C    0.32139010    0.49853991    0.27191049    -0.18270000
opls_166-88    C    0.29368999    0.49556998    0.39989930    0.32850000
opls_700-89    C    0.29400000    0.51548004    0.56665035    -0.04910000
opls_700-90    C    0.26524987    0.51039995    0.70586014    -0.04480000
opls_166-91    C    0.26355987    0.47841006    0.80658042    0.35490000
opls_145-92    C    0.23798989    0.47363012    0.94487972    -0.18500000
opls_700-93    C    0.21360005    0.50027994    0.98660000    -0.00020000
opls_700-94    C    0.21417988    0.53220995    0.88353986    0.03540000
opls_700-95    C    0.24003991    0.53724002    0.74160000    0.03740000
opls_145-96    C    0.24001996    0.56893002    0.63794965    -0.09000000
opls_145-97    C    0.21503007    0.59534007    0.67424056    -0.10950000
opls_263-98    C    0.18967004    0.59039010    0.81437063    0.17210000
opls_145-99    C    0.18920011    0.55901996    0.91772028    -0.17260000
opls_142-100    C    0.37934992    0.52286988    0.17174965    0.02130000
opls_145-101    C    0.40975013    0.50239010    0.89900979    0.23860000
opls_700-102    C    0.18908010    0.49453007    0.14393986    0.08460000
opls_145-103    C    0.41158010    0.47637999    0.76022937    -0.10660000
opls_145-104    C    0.44017004    0.47560990    0.63624056    -0.09000000
opls_700-105    C    0.46732996    0.50105003    0.64739021    0.07230000
opls_145-106    C    0.46503007    0.52727009    0.78714965    -0.09140000
opls_145-107    C    0.43663012    0.52791006    0.91188951    -0.10650000
opls_145-108    C    0.18851996    0.51848989    0.29395944    -0.09000000
opls_145-109    C    0.16544997    0.51320011    0.44386993    -0.10760000
opls_700-110    C    0.14272991    0.48389010    0.44515944    0.05420000
opls_145-111    C    0.14355987    0.45965008    0.29685035    -0.09150000
opls_145-112    C    0.16686003    0.46481001    0.14693986    -0.08990000
opls_142-113    C    0.11670011    0.47932012    0.59471049    0.01680000
opls_145-114    C    0.08813012    0.49927994    0.87466014    0.23820000
opls_145-115    C    0.08610990    0.52584992    0.01060000    -0.10880000
opls_145-116    C    0.05855003    0.52579005    0.14127972    -0.09140000
opls_700-117    C    0.03255987    0.49905003    0.13900000    0.07240000
opls_145-118    C    0.03520995    0.47220995    0.00260000    -0.09140000
opls_145-119    C    0.06263997    0.47227009    0.87206014    -0.10840000
opls_700-120    C    0.85046009    0.04186003    0.97080979    0.03510000
opls_700-121    C    0.82250000    0.03879989    0.10279021    0.03880000
opls_145-122    C    0.82396009    0.05870995    0.26946014    -0.07320000
opls_145-123    C    0.85227994    0.08156998    0.30437063    -0.10930000
opls_263-124    C    0.87960005    0.08472006    0.17353986    0.17210000
opls_145-125    C    0.87877994    0.06491990    0.00832028    -0.17250000
opls_700-126    C    0.84984007    0.02139995    0.80573007    0.03670000
opls_145-127    C    0.82139010    0.99853991    0.77191049    -0.18270000
opls_166-128    C    0.79368999    0.99556998    0.89990070    0.32850000
opls_700-129    C    0.79400000    0.01548004    0.06665035    -0.04910000
opls_700-130    C    0.76525013    0.01039995    0.20586014    -0.04480000
opls_166-131    C    0.76355987    0.97841006    0.30658042    0.35490000
opls_145-132    C    0.73798989    0.97363012    0.44487972    -0.18500000
opls_700-133    C    0.71360005    0.00027994    0.48660000    -0.00020000
opls_700-134    C    0.71417988    0.03220995    0.38353986    0.03540000
opls_700-135    C    0.74003991    0.03724002    0.24160000    0.03740000
opls_145-136    C    0.74001996    0.06893002    0.13794965    -0.09000000
opls_145-137    C    0.71503007    0.09534007    0.17424056    -0.10950000
opls_263-138    C    0.68967004    0.09039010    0.31437063    0.17210000
opls_145-139    C    0.68920011    0.05901996    0.41772028    -0.17260000
opls_142-140    C    0.87934992    0.02286988    0.67174965    0.02130000
opls_145-141    C    0.90975013    0.00239010    0.39900979    0.23860000
opls_700-142    C    0.68908010    0.99453007    0.64393986    0.08460000
opls_145-143    C    0.91158010    0.97637999    0.26022937    -0.10660000
opls_145-144    C    0.94017004    0.97560990    0.13624056    -0.09000000
opls_700-145    C    0.96732996    0.00105003    0.14739021    0.07230000
opls_145-146    C    0.96503007    0.02727009    0.28714965    -0.09140000
opls_145-147    C    0.93663012    0.02791006    0.41188951    -0.10650000
opls_145-148    C    0.68851996    0.01848989    0.79395944    -0.09000000
opls_145-149    C    0.66544997    0.01320011    0.94386993    -0.10760000
opls_700-150    C    0.64272991    0.98389010    0.94515944    0.05420000
opls_145-151    C    0.64355987    0.95965008    0.79685035    -0.09150000
opls_145-152    C    0.66686003    0.96481001    0.64693986    -0.08990000
opls_142-153    C    0.61670011    0.97932012    0.09471049    0.01680000
opls_145-154    C    0.58813012    0.99927994    0.37466014    0.23820000
opls_145-155    C    0.58610990    0.02584992    0.51060000    -0.10880000
opls_145-156    C    0.55855003    0.02579005    0.64127972    -0.09140000
opls_700-157    C    0.53255987    0.99905003    0.63900000    0.07240000
opls_145-158    C    0.53520995    0.97220995    0.50260000    -0.09140000
opls_145-159    C    0.56263997    0.97227009    0.37206014    -0.10840000
opls_700-160    C    0.04186003    0.64953991    0.22080979    0.03510000
opls_700-161    C    0.03879989    0.67750000    0.35279021    0.03880000
opls_145-162    C    0.05870995    0.67603991    0.51946014    -0.07320000
opls_145-163    C    0.08156998    0.64772006    0.55437063    -0.10930000
opls_263-164    C    0.08472006    0.62039995    0.42353986    0.17210000
opls_145-165    C    0.06491990    0.62122006    0.25832028    -0.17250000
opls_700-166    C    0.02139995    0.65015993    0.05573007    0.03670000
opls_145-167    C    0.99853991    0.67860990    0.02191049    -0.18270000
opls_166-168    C    0.99556998    0.70631001    0.14989930    0.32850000
opls_700-169    C    0.01548004    0.70600000    0.31665035    -0.04910000
opls_700-170    C    0.01039995    0.73475013    0.45586014    -0.04480000
opls_166-171    C    0.97841006    0.73644013    0.55658042    0.35490000
opls_145-172    C    0.97363012    0.76201011    0.69487972    -0.18500000
opls_700-173    C    0.00027994    0.78639995    0.73660000    -0.00020000
opls_700-174    C    0.03220995    0.78582012    0.63353986    0.03540000
opls_700-175    C    0.03724002    0.75996009    0.49160000    0.03740000
opls_145-176    C    0.06893002    0.75998004    0.38794965    -0.09000000
opls_145-177    C    0.09534007    0.78496993    0.42424056    -0.10950000
opls_263-178    C    0.09039010    0.81032996    0.56437063    0.17210000
opls_145-179    C    0.05901996    0.81079989    0.66772028    -0.17260000
opls_142-180    C    0.02286988    0.62065008    0.92174965    0.02130000
opls_145-181    C    0.00239010    0.59025013    0.64900979    0.23860000
opls_700-182    C    0.99453007    0.81091990    0.89393986    0.08460000
opls_145-183    C    0.97637999    0.58841990    0.51022937    -0.10660000
opls_145-184    C    0.97560990    0.55982996    0.38624056    -0.09000000
opls_700-185    C    0.00105003    0.53267004    0.39739021    0.07230000
opls_145-186    C    0.02727009    0.53496993    0.53714965    -0.09140000
opls_145-187    C    0.02791006    0.56336988    0.66188951    -0.10650000
opls_145-188    C    0.01848989    0.81148004    0.04395944    -0.09000000
opls_145-189    C    0.01320011    0.83455003    0.19386993    -0.10760000
opls_700-190    C    0.98389010    0.85727009    0.19515944    0.05420000
opls_145-191    C    0.95965008    0.85644013    0.04685035    -0.09150000
opls_145-192    C    0.96481001    0.83313997    0.89693986    -0.08990000
opls_142-193    C    0.97932012    0.88329989    0.34471049    0.01680000
opls_145-194    C    0.99927994    0.91186988    0.62466014    0.23820000
opls_145-195    C    0.02584992    0.91389010    0.76060000    -0.10880000
opls_145-196    C    0.02579005    0.94144997    0.89127972    -0.09140000
opls_700-197    C    0.99905003    0.96744013    0.88900000    0.07240000
opls_145-198    C    0.97220995    0.96479005    0.75260000    -0.09140000
opls_145-199    C    0.97227009    0.93736003    0.62206014    -0.10840000
opls_700-200    C    0.54186003    0.14953991    0.72080979    0.03510000
opls_700-201    C    0.53879989    0.17750000    0.85279021    0.03880000
opls_145-202    C    0.55870995    0.17603991    0.01946014    -0.07320000
opls_145-203    C    0.58156998    0.14772006    0.05437063    -0.10930000
opls_263-204    C    0.58472006    0.12039995    0.92353986    0.17210000
opls_145-205    C    0.56491990    0.12122006    0.75832028    -0.17250000
opls_700-206    C    0.52139995    0.15015993    0.55573007    0.03670000
opls_145-207    C    0.49853991    0.17860990    0.52191049    -0.18270000
opls_166-208    C    0.49556998    0.20631001    0.64990070    0.32860000
opls_700-209    C    0.51548004    0.20600000    0.81665035    -0.04910000
opls_700-210    C    0.51039995    0.23474987    0.95586014    -0.04480000
opls_166-211    C    0.47841006    0.23644013    0.05658042    0.35490000
opls_145-212    C    0.47363012    0.26201011    0.19487972    -0.18500000
opls_700-213    C    0.50027994    0.28639995    0.23660000    -0.00020000
opls_700-214    C    0.53220995    0.28582012    0.13353986    0.03540000
opls_700-215    C    0.53724002    0.25996009    0.99160000    0.03740000
opls_145-216    C    0.56893002    0.25998004    0.88794965    -0.09000000
opls_145-217    C    0.59534007    0.28496993    0.92424056    -0.10950000
opls_263-218    C    0.59039010    0.31032996    0.06437063    0.17210000
opls_145-219    C    0.55901996    0.31079989    0.16772028    -0.17260000
opls_142-220    C    0.52286988    0.12065008    0.42174965    0.02130000
opls_145-221    C    0.50239010    0.09025013    0.14900979    0.23860000
opls_700-222    C    0.49453007    0.31091990    0.39393986    0.08460000
opls_145-223    C    0.47637999    0.08841990    0.01022937    -0.10660000
opls_145-224    C    0.47560990    0.05982996    0.88624056    -0.09000000
opls_700-225    C    0.50105003    0.03267004    0.89739021    0.07230000
opls_145-226    C    0.52727009    0.03496993    0.03714965    -0.09140000
opls_145-227    C    0.52791006    0.06336988    0.16188951    -0.10650000
opls_145-228    C    0.51848989    0.31148004    0.54395944    -0.09000000
opls_145-229    C    0.51320011    0.33455003    0.69386993    -0.10760000
opls_700-230    C    0.48389010    0.35727009    0.69515944    0.05420000
opls_145-231    C    0.45965008    0.35644013    0.54685035    -0.09140000
opls_145-232    C    0.46481001    0.33313997    0.39693986    -0.08990000
opls_142-233    C    0.47932012    0.38329989    0.84471049    0.01680000
opls_145-234    C    0.49927994    0.41186988    0.12466014    0.23820000
opls_145-235    C    0.52584992    0.41389010    0.26060000    -0.10880000
opls_145-236    C    0.52579005    0.44144997    0.39127972    -0.09140000
opls_700-237    C    0.49905003    0.46744013    0.38900000    0.07240000
opls_145-238    C    0.47220995    0.46479005    0.25260000    -0.09140000
opls_145-239    C    0.47227009    0.43736003    0.12206014    -0.10830000
opls_700-240    C    0.45813997    0.85046009    0.72080979    0.03510000
opls_700-241    C    0.46120011    0.82250000    0.85279021    0.03880000
opls_145-242    C    0.44129005    0.82396009    0.01946014    -0.07320000
opls_145-243    C    0.41843002    0.85227994    0.05437063    -0.10930000
opls_263-244    C    0.41527994    0.87960005    0.92353986    0.17210000
opls_145-245    C    0.43508010    0.87877994    0.75832028    -0.17250000
opls_700-246    C    0.47860005    0.84984007    0.55573007    0.03670000
opls_145-247    C    0.50146009    0.82139010    0.52191049    -0.18270000
opls_166-248    C    0.50443002    0.79368999    0.64990070    0.32850000
opls_700-249    C    0.48451996    0.79400000    0.81665035    -0.04910000
opls_700-250    C    0.48960005    0.76525013    0.95586014    -0.04480000
opls_166-251    C    0.52158994    0.76355987    0.05658042    0.35500000
opls_145-252    C    0.52636988    0.73798989    0.19487972    -0.18500000
opls_700-253    C    0.49972006    0.71360005    0.23660000    -0.00020000
opls_700-254    C    0.46779005    0.71417988    0.13353986    0.03540000
opls_700-255    C    0.46275998    0.74003991    0.99160000    0.03740000
opls_145-256    C    0.43106998    0.74001996    0.88794965    -0.09000000
opls_145-257    C    0.40465993    0.71503007    0.92424056    -0.10950000
opls_263-258    C    0.40960990    0.68967004    0.06437063    0.17210000
opls_145-259    C    0.44098004    0.68920011    0.16772028    -0.17260000
opls_142-260    C    0.47713012    0.87934992    0.42174965    0.02130000
opls_145-261    C    0.49760990    0.90975013    0.14900979    0.23860000
opls_700-262    C    0.50546993    0.68908010    0.39393986    0.08460000
opls_145-263    C    0.52362001    0.91158010    0.01022937    -0.10660000
opls_145-264    C    0.52439010    0.94017004    0.88624056    -0.09000000
opls_700-265    C    0.49894997    0.96732996    0.89739021    0.07230000
opls_145-266    C    0.47272991    0.96503007    0.03714965    -0.09140000
opls_145-267    C    0.47208994    0.93663012    0.16188951    -0.10650000
opls_145-268    C    0.48151011    0.68851996    0.54395944    -0.09000000
opls_145-269    C    0.48679989    0.66544997    0.69386993    -0.10760000
opls_700-270    C    0.51610990    0.64272991    0.69515944    0.05420000
opls_145-271    C    0.54034992    0.64355987    0.54685035    -0.09150000
opls_145-272    C    0.53518999    0.66686003    0.39693986    -0.08990000
opls_142-273    C    0.52067988    0.61670011    0.84471049    0.01680000
opls_145-274    C    0.50072006    0.58813012    0.12466014    0.23820000
opls_145-275    C    0.47415008    0.58610990    0.26060000    -0.10880000
opls_145-276    C    0.47420995    0.55855003    0.39127972    -0.09140000
opls_700-277    C    0.50094997    0.53255987    0.38900000    0.07240000
opls_145-278    C    0.52779005    0.53520995    0.25260000    -0.09140000
opls_145-279    C    0.52772991    0.56263997    0.12206014    -0.10840000
opls_700-280    C    0.95813997    0.35046009    0.22080979    0.03510000
opls_700-281    C    0.96120011    0.32250000    0.35279021    0.03880000
opls_145-282    C    0.94129005    0.32396009    0.51946014    -0.07320000
opls_145-283    C    0.91843002    0.35227994    0.55437063    -0.10930000
opls_263-284    C    0.91527994    0.37960005    0.42353986    0.17210000
opls_145-285    C    0.93508010    0.37877994    0.25832028    -0.17250000
opls_700-286    C    0.97860005    0.34984007    0.05573007    0.03670000
opls_145-287    C    0.00146009    0.32139010    0.02191049    -0.18270000
opls_166-288    C    0.00443002    0.29368999    0.14989930    0.32860000
opls_700-289    C    0.98451996    0.29400000    0.31665035    -0.04910000
opls_700-290    C    0.98960005    0.26524987    0.45586014    -0.04480000
opls_166-291    C    0.02158994    0.26355987    0.55658042    0.35490000
opls_145-292    C    0.02636988    0.23798989    0.69487972    -0.18500000
opls_700-293    C    0.99972006    0.21360005    0.73660000    -0.00020000
opls_700-294    C    0.96779005    0.21417988    0.63353986    0.03540000
opls_700-295    C    0.96275998    0.24003991    0.49160000    0.03740000
opls_145-296    C    0.93106998    0.24001996    0.38794965    -0.09000000
opls_145-297    C    0.90465993    0.21503007    0.42424056    -0.10940000
opls_263-298    C    0.90960990    0.18967004    0.56437063    0.17210000
opls_145-299    C    0.94098004    0.18920011    0.66772028    -0.17250000
opls_142-300    C    0.97713012    0.37934992    0.92174965    0.02130000
opls_145-301    C    0.99760990    0.40975013    0.64900979    0.23860000
opls_700-302    C    0.00546993    0.18908010    0.89393986    0.08460000
opls_145-303    C    0.02362001    0.41158010    0.51022937    -0.10660000
opls_145-304    C    0.02439010    0.44017004    0.38624056    -0.09000000
opls_700-305    C    0.99894997    0.46732996    0.39739021    0.07230000
opls_145-306    C    0.97272991    0.46503007    0.53714965    -0.09140000
opls_145-307    C    0.97208994    0.43663012    0.66188951    -0.10650000
opls_145-308    C    0.98151011    0.18851996    0.04395944    -0.09000000
opls_145-309    C    0.98679989    0.16544997    0.19386993    -0.10750000
opls_700-310    C    0.01610990    0.14272991    0.19515944    0.05420000
opls_145-311    C    0.04034992    0.14355987    0.04685035    -0.09150000
opls_145-312    C    0.03518999    0.16686003    0.89693986    -0.08990000
opls_142-313    C    0.02067988    0.11670011    0.34471049    0.01680000
opls_145-314    C    0.00072006    0.08813012    0.62466014    0.23820000
opls_145-315    C    0.97415008    0.08610990    0.76060000    -0.10880000
opls_145-316    C    0.97420995    0.05855003    0.89127972    -0.09140000
opls_700-317    C    0.00094997    0.03255987    0.88900000    0.07240000
opls_145-318    C    0.02779005    0.03520995    0.75260000    -0.09140000
opls_145-319    C    0.02772991    0.06263997    0.62206014    -0.10840000
opls_701-320    C    0.00000000    0.00000000    0.01861958    0.01170000
opls_701-321    C    0.50000000    0.50000000    0.51861958    0.01170000
opls_701-322    C    0.00000000    0.50000000    0.26861958    0.01170000
opls_701-323    C    0.50000000    0.00000000    0.76861958    0.01170000
opls_750-324    N    0.11908010    0.99824002    0.52878042    -0.23640000
opls_750-325    N    0.38537999    0.99829989    0.23215944    -0.23640000
opls_750-326    N    0.61908010    0.49824002    0.02878042    -0.23640000
opls_750-327    N    0.88537999    0.49829989    0.73215944    -0.23640000
opls_750-328    N    0.38091990    0.50175998    0.02878042    -0.23630000
opls_750-329    N    0.11462001    0.50170011    0.73215944    -0.23640000
opls_750-330    N    0.88091990    0.00175998    0.52878042    -0.23640000
opls_750-331    N    0.61462001    0.00170011    0.23215944    -0.23640000
opls_750-332    N    0.00175998    0.61908010    0.77878042    -0.23640000
opls_750-333    N    0.00170011    0.88537999    0.48215944    -0.23640000
opls_750-334    N    0.50175998    0.11908010    0.27878042    -0.23640000
opls_750-335    N    0.50170011    0.38537999    0.98215944    -0.23640000
opls_750-336    N    0.49824002    0.88091990    0.27878042    -0.23640000
opls_750-337    N    0.49829989    0.61462001    0.98215944    -0.23630000
opls_750-338    N    0.99824002    0.38091990    0.77878042    -0.23640000
opls_750-339    N    0.99829989    0.11462001    0.48215944    -0.23630000
opls_264-340    Cl    0.08484007    0.88679989    0.21692028    -0.06650000
opls_264-341    Cl    0.34141006    0.87639995    0.36238042    -0.07000000
opls_264-342    Cl    0.58484007    0.38679989    0.71692028    -0.06650000
opls_264-343    Cl    0.84141006    0.37639995    0.86238042    -0.07000000
opls_264-344    Cl    0.41515993    0.61320011    0.71692028    -0.06650000
opls_264-345    Cl    0.15858994    0.62360005    0.86238042    -0.07000000
opls_264-346    Cl    0.91515993    0.11320011    0.21692028    -0.06650000
opls_264-347    Cl    0.65858994    0.12360005    0.36238042    -0.07000000
opls_264-348    Cl    0.11320011    0.58484007    0.46692028    -0.06650000
opls_264-349    Cl    0.12360005    0.84141006    0.61238042    -0.07000000
opls_264-350    Cl    0.61320011    0.08484007    0.96692028    -0.06650000
opls_264-351    Cl    0.62360005    0.34141006    0.11238042    -0.07000000
opls_264-352    Cl    0.38679989    0.91515993    0.96692028    -0.06650000
opls_264-353    Cl    0.37639995    0.65858994    0.11238042    -0.07000000
opls_264-354    Cl    0.88679989    0.41515993    0.46692028    -0.06650000
opls_264-355    Cl    0.87639995    0.15858994    0.61238042    -0.07000000
opls_167-356    O    0.23346993    0.02736988    0.86226993    -0.38410000
opls_167-357    O    0.21234007    0.04801996    0.27487972    -0.38410000
opls_167-358    O    0.73346993    0.52736988    0.36226993    -0.38410000
opls_167-359    O    0.71234007    0.54801996    0.77487972    -0.38410000
opls_167-360    O    0.26653007    0.47263012    0.36226993    -0.38410000
opls_167-361    O    0.28765993    0.45198004    0.77487972    -0.38410000
opls_167-362    O    0.76653007    0.97263012    0.86226993    -0.38410000
opls_167-363    O    0.78765993    0.95198004    0.27487972    -0.38400000
opls_167-364    O    0.97263012    0.73346993    0.11226993    -0.38410000
opls_167-365    O    0.95198004    0.71234007    0.52487972    -0.38410000
opls_167-366    O    0.47263012    0.23346993    0.61226993    -0.38410000
opls_167-367    O    0.45198004    0.21234007    0.02487972    -0.38410000
opls_167-368    O    0.52736988    0.76653007    0.61226993    -0.38410000
opls_167-369    O    0.54801996    0.78765993    0.02487972    -0.38410000
opls_167-370    O    0.02736988    0.26653007    0.11226993    -0.38410000
opls_167-371    O    0.04801996    0.28765993    0.52487972    -0.38410000
opls_146-372    H    0.19822006    0.94382012    0.37740979    0.05050000
opls_146-373    H    0.14691006    0.90236003    0.43953986    0.05050000
opls_146-374    H    0.09867004    0.93251996    0.90253986    0.05050000
opls_146-375    H    0.17934007    0.01798004    0.63822937    0.05050000
opls_146-376    H    0.26318999    0.05246009    0.52600979    0.05050000
opls_146-377    H    0.23929989    0.92703991    0.02321958    0.05050000
opls_146-378    H    0.28475013    0.87896993    0.08946993    0.05050000
opls_146-379    H    0.33167988    0.94500000    0.53144056    0.05050000
opls_144-380    H    0.09872006    0.95668999    0.69607972    0.02980000
opls_146-381    H    0.11048989    0.04432012    0.24857063    0.05050000
opls_146-382    H    0.05836003    0.04589995    0.02406014    0.05060000
opls_146-383    H    0.01336003    0.95155987    0.29948951    0.04990000
opls_146-384    H    0.06470011    0.95070011    0.52478042    0.04990000
opls_168-385    H    0.23024987    0.05182012    0.94778042    0.32840000
opls_168-386    H    0.22010005    0.07208994    0.35507972    0.32820000
opls_146-387    H    0.29287999    0.95753991    0.79281958    0.05000000
opls_146-388    H    0.33484992    0.96717004    0.06540000    0.05050000
opls_146-389    H    0.37484007    0.06446993    0.79780000    0.05050000
opls_146-390    H    0.33231001    0.05525998    0.52746014    0.05050000
opls_144-391    H    0.40203007    0.04451996    0.08895944    0.02980000
opls_146-392    H    0.39284992    0.95231001    0.51441958    0.05050000
opls_146-393    H    0.44300000    0.95234007    0.75149930    0.05050000
opls_146-394    H    0.48534992    0.05008010    0.49779021    0.05050000
opls_146-395    H    0.43567988    0.04974987    0.26277063    0.05050000
opls_146-396    H    0.69822006    0.44382012    0.87740979    0.05050000
opls_146-397    H    0.64691006    0.40236003    0.93953986    0.05060000
opls_146-398    H    0.59867004    0.43251996    0.40253986    0.05050000
opls_146-399    H    0.67934007    0.51798004    0.13822937    0.05050000
opls_146-400    H    0.76318999    0.55246009    0.02600979    0.05050000
opls_146-401    H    0.73929989    0.42703991    0.52321958    0.05050000
opls_146-402    H    0.78475013    0.37896993    0.58946993    0.05050000
opls_146-403    H    0.83167988    0.44500000    0.03144056    0.05050000
opls_144-404    H    0.59872006    0.45668999    0.19607972    0.02980000
opls_146-405    H    0.61048989    0.54432012    0.74857063    0.05050000
opls_146-406    H    0.55836003    0.54589995    0.52406014    0.05050000
opls_146-407    H    0.51336003    0.45155987    0.79948951    0.04990000
opls_146-408    H    0.56470011    0.45070011    0.02478042    0.04990000
opls_168-409    H    0.73025013    0.55182012    0.44778042    0.32830000
opls_168-410    H    0.72010005    0.57208994    0.85507972    0.32820000
opls_146-411    H    0.79287999    0.45753991    0.29281958    0.04990000
opls_146-412    H    0.83484992    0.46717004    0.56540000    0.05050000
opls_146-413    H    0.87484007    0.56446993    0.29780000    0.05050000
opls_146-414    H    0.83231001    0.55525998    0.02746014    0.05050000
opls_144-415    H    0.90203007    0.54451996    0.58895944    0.02980000
opls_146-416    H    0.89284992    0.45231001    0.01441958    0.05050000
opls_146-417    H    0.94300000    0.45234007    0.25149930    0.05050000
opls_146-418    H    0.98534992    0.55008010    0.99779021    0.05050000
opls_146-419    H    0.93567988    0.54974987    0.76277063    0.05050000
opls_146-420    H    0.30177994    0.55617988    0.87740979    0.05050000
opls_146-421    H    0.35308994    0.59763997    0.93953986    0.05050000
opls_146-422    H    0.40132996    0.56748004    0.40253986    0.05050000
opls_146-423    H    0.32065993    0.48201996    0.13822937    0.05050000
opls_146-424    H    0.23681001    0.44753991    0.02600979    0.05050000
opls_146-425    H    0.26070011    0.57296009    0.52321958    0.05050000
opls_146-426    H    0.21525013    0.62103007    0.58946993    0.05060000
opls_146-427    H    0.16832012    0.55500000    0.03144056    0.05050000
opls_144-428    H    0.40127994    0.54331001    0.19607972    0.02980000
opls_146-429    H    0.38951011    0.45567988    0.74857063    0.05050000
opls_146-430    H    0.44163997    0.45410005    0.52406014    0.05050000
opls_146-431    H    0.48663997    0.54844013    0.79948951    0.04990000
opls_146-432    H    0.43529989    0.54929989    0.02478042    0.04990000
opls_168-433    H    0.26974987    0.44817988    0.44778042    0.32830000
opls_168-434    H    0.27989995    0.42791006    0.85507972    0.32820000
opls_146-435    H    0.20712001    0.54246009    0.29281958    0.04990000
opls_146-436    H    0.16515008    0.53282996    0.56540000    0.05050000
opls_146-437    H    0.12515993    0.43553007    0.29780000    0.05050000
opls_146-438    H    0.16768999    0.44474002    0.02746014    0.05050000
opls_144-439    H    0.09796993    0.45548004    0.58895944    0.02980000
opls_146-440    H    0.10715008    0.54768999    0.01441958    0.05050000
opls_146-441    H    0.05700000    0.54765993    0.25149930    0.05050000
opls_146-442    H    0.01465008    0.44991990    0.99779021    0.05050000
opls_146-443    H    0.06432012    0.45024987    0.76277063    0.05050000
opls_146-444    H    0.80177994    0.05617988    0.37740979    0.05050000
opls_146-445    H    0.85308994    0.09763997    0.43953986    0.05050000
opls_146-446    H    0.90132996    0.06748004    0.90253986    0.05050000
opls_146-447    H    0.82065993    0.98201996    0.63822937    0.05050000
opls_146-448    H    0.73681001    0.94753991    0.52600979    0.05050000
opls_146-449    H    0.76070011    0.07296009    0.02321958    0.05050000
opls_146-450    H    0.71524987    0.12103007    0.08946993    0.05050000
opls_146-451    H    0.66832012    0.05500000    0.53144056    0.05050000
opls_144-452    H    0.90127994    0.04331001    0.69607972    0.02980000
opls_146-453    H    0.88951011    0.95567988    0.24857063    0.05050000
opls_146-454    H    0.94163997    0.95410005    0.02406014    0.05050000
opls_146-455    H    0.98663997    0.04844013    0.29948951    0.04990000
opls_146-456    H    0.93529989    0.04929989    0.52478042    0.04990000
opls_168-457    H    0.76975013    0.94817988    0.94778042    0.32840000
opls_168-458    H    0.77989995    0.92791006    0.35507972    0.32820000
opls_146-459    H    0.70712001    0.04246009    0.79281958    0.04990000
opls_146-460    H    0.66515008    0.03282996    0.06540000    0.05050000
opls_146-461    H    0.62515993    0.93553007    0.79780000    0.05050000
opls_146-462    H    0.66768999    0.94474002    0.52746014    0.05050000
opls_144-463    H    0.59796993    0.95548004    0.08895944    0.02980000
opls_146-464    H    0.60715008    0.04768999    0.51441958    0.05050000
opls_146-465    H    0.55700000    0.04765993    0.75149930    0.05050000
opls_146-466    H    0.51465008    0.94991990    0.49779021    0.05050000
opls_146-467    H    0.56432012    0.95024987    0.26277063    0.05050000
opls_146-468    H    0.05617988    0.69822006    0.62740979    0.05050000
opls_146-469    H    0.09763997    0.64691006    0.68953986    0.05050000
opls_146-470    H    0.06748004    0.59867004    0.15253986    0.05050000
opls_146-471    H    0.98201996    0.67934007    0.88822937    0.05050000
opls_146-472    H    0.94753991    0.76318999    0.77600979    0.05050000
opls_146-473    H    0.07296009    0.73929989    0.27321958    0.05050000
opls_146-474    H    0.12103007    0.78475013    0.33946993    0.05050000
opls_146-475    H    0.05500000    0.83167988    0.78144056    0.05050000
opls_144-476    H    0.04331001    0.59872006    0.94607972    0.02990000
opls_146-477    H    0.95567988    0.61048989    0.49857063    0.05050000
opls_146-478    H    0.95410005    0.55836003    0.27406014    0.05050000
opls_146-479    H    0.04844013    0.51336003    0.54948951    0.04990000
opls_146-480    H    0.04929989    0.56470011    0.77478042    0.04990000
opls_168-481    H    0.94817988    0.73025013    0.19778042    0.32830000
opls_168-482    H    0.92791006    0.72010005    0.60507972    0.32820000
opls_146-483    H    0.04246009    0.79287999    0.04281958    0.04990000
opls_146-484    H    0.03282996    0.83484992    0.31540000    0.05050000
opls_146-485    H    0.93553007    0.87484007    0.04780000    0.05050000
opls_146-486    H    0.94474002    0.83231001    0.77746014    0.05050000
opls_144-487    H    0.95548004    0.90203007    0.33895944    0.02980000
opls_146-488    H    0.04768999    0.89284992    0.76441958    0.05050000
opls_146-489    H    0.04765993    0.94300000    0.00150070    0.05050000
opls_146-490    H    0.94991990    0.98534992    0.74779021    0.05050000
opls_146-491    H    0.95024987    0.93567988    0.51277063    0.05050000
opls_146-492    H    0.55617988    0.19822006    0.12740979    0.05050000
opls_146-493    H    0.59763997    0.14691006    0.18953986    0.05050000
opls_146-494    H    0.56748004    0.09867004    0.65253986    0.05050000
opls_146-495    H    0.48201996    0.17934007    0.38822937    0.05050000
opls_146-496    H    0.44753991    0.26318999    0.27600979    0.05050000
opls_146-497    H    0.57296009    0.23929989    0.77321958    0.05050000
opls_146-498    H    0.62103007    0.28475013    0.83946993    0.05050000
opls_146-499    H    0.55500000    0.33167988    0.28144056    0.05050000
opls_144-500    H    0.54331001    0.09872006    0.44607972    0.02980000
opls_146-501    H    0.45567988    0.11048989    0.99857063    0.05050000
opls_146-502    H    0.45410005    0.05836003    0.77406014    0.05050000
opls_146-503    H    0.54844013    0.01336003    0.04948951    0.04990000
opls_146-504    H    0.54929989    0.06470011    0.27478042    0.04990000
opls_168-505    H    0.44817988    0.23024987    0.69778042    0.32840000
opls_168-506    H    0.42791006    0.22010005    0.10507972    0.32820000
opls_146-507    H    0.54246009    0.29287999    0.54281958    0.04990000
opls_146-508    H    0.53282996    0.33484992    0.81540000    0.05050000
opls_146-509    H    0.43553007    0.37484007    0.54780000    0.05050000
opls_146-510    H    0.44474002    0.33231001    0.27746014    0.05050000
opls_144-511    H    0.45548004    0.40203007    0.83895944    0.02980000
opls_146-512    H    0.54768999    0.39284992    0.26441958    0.05050000
opls_146-513    H    0.54765993    0.44300000    0.50150070    0.05050000
opls_146-514    H    0.44991990    0.48534992    0.24779021    0.05050000
opls_146-515    H    0.45024987    0.43567988    0.01277063    0.05050000
opls_146-516    H    0.44382012    0.80177994    0.12740979    0.05050000
opls_146-517    H    0.40236003    0.85308994    0.18953986    0.05050000
opls_146-518    H    0.43251996    0.90132996    0.65253986    0.05060000
opls_146-519    H    0.51798004    0.82065993    0.38822937    0.05050000
opls_146-520    H    0.55246009    0.73681001    0.27600979    0.05050000
opls_146-521    H    0.42703991    0.76070011    0.77321958    0.05050000
opls_146-522    H    0.37896993    0.71524987    0.83946993    0.05050000
opls_146-523    H    0.44500000    0.66832012    0.28144056    0.05050000
opls_144-524    H    0.45668999    0.90127994    0.44607972    0.02980000
opls_146-525    H    0.54432012    0.88951011    0.99857063    0.05050000
opls_146-526    H    0.54589995    0.94163997    0.77406014    0.05050000
opls_146-527    H    0.45155987    0.98663997    0.04948951    0.04990000
opls_146-528    H    0.45070011    0.93529989    0.27478042    0.04990000
opls_168-529    H    0.55182012    0.76975013    0.69778042    0.32830000
opls_168-530    H    0.57208994    0.77989995    0.10507972    0.32830000
opls_146-531    H    0.45753991    0.70712001    0.54281958    0.04990000
opls_146-532    H    0.46717004    0.66515008    0.81540000    0.05050000
opls_146-533    H    0.56446993    0.62515993    0.54780000    0.05050000
opls_146-534    H    0.55525998    0.66768999    0.27746014    0.05050000
opls_144-535    H    0.54451996    0.59796993    0.83895944    0.02980000
opls_146-536    H    0.45231001    0.60715008    0.26441958    0.05050000
opls_146-537    H    0.45234007    0.55700000    0.50150070    0.05050000
opls_146-538    H    0.55008010    0.51465008    0.24779021    0.05050000
opls_146-539    H    0.54974987    0.56432012    0.01277063    0.05050000
opls_146-540    H    0.94382012    0.30177994    0.62740979    0.05050000
opls_146-541    H    0.90236003    0.35308994    0.68953986    0.05050000
opls_146-542    H    0.93251996    0.40132996    0.15253986    0.05050000
opls_146-543    H    0.01798004    0.32065993    0.88822937    0.05050000
opls_146-544    H    0.05246009    0.23681001    0.77600979    0.05050000
opls_146-545    H    0.92703991    0.26070011    0.27321958    0.05050000
opls_146-546    H    0.87896993    0.21525013    0.33946993    0.05050000
opls_146-547    H    0.94500000    0.16832012    0.78144056    0.05050000
opls_144-548    H    0.95668999    0.40127994    0.94607972    0.02980000
opls_146-549    H    0.04432012    0.38951011    0.49857063    0.05060000
opls_146-550    H    0.04589995    0.44163997    0.27406014    0.05050000
opls_146-551    H    0.95155987    0.48663997    0.54948951    0.04990000
opls_146-552    H    0.95070011    0.43529989    0.77478042    0.04990000
opls_168-553    H    0.05182012    0.26974987    0.19778042    0.32830000
opls_168-554    H    0.07208994    0.27989995    0.60507972    0.32820000
opls_146-555    H    0.95753991    0.20712001    0.04281958    0.04990000
opls_146-556    H    0.96717004    0.16515008    0.31540000    0.05050000
opls_146-557    H    0.06446993    0.12515993    0.04780000    0.05050000
opls_146-558    H    0.05525998    0.16768999    0.77746014    0.05050000
opls_144-559    H    0.04451996    0.09796993    0.33895944    0.02980000
opls_146-560    H    0.95231001    0.10715008    0.76441958    0.05050000
opls_146-561    H    0.95234007    0.05700000    0.00150070    0.05050000
opls_146-562    H    0.05008010    0.01465008    0.74779021    0.05050000
opls_146-563    H    0.04974987    0.06432012    0.51277063    0.05050000
