#======================================================================
# Crystal Data Generated By AuToFF
#----------------------------------------------------------------------

data_AuToFF_phase_1

_cell_length_a                         24.6865
_cell_length_b                         24.6865
_cell_length_c                         3.5002
_cell_angle_alpha                      90.00
_cell_angle_beta                       90.00
_cell_angle_gamma                      120.00
_symmetry_space_group_name_H-M_alt     'P 1'
_symmetry_space_group_IT_number        1

loop_
_space_group_symop_operation_xyz
   'x, y, z'

loop_
   _atom_site_label
   _atom_site_type_symbol
   _atom_site_fract_x
   _atom_site_fract_y
   _atom_site_fract_z
   _atom_site_charge
opls_700-0    C    0.33363989    0.72446974    0.50000000    0.02600000
opls_145-1    C    0.44711984    0.66559974    0.50000000    -0.19840000
opls_166-2    C    0.44680997    0.61012978    0.50000000    0.17650000
opls_166-3    C    0.44395013    0.49947987    0.50000000    0.17440000
opls_700-4    C    0.27552983    0.60916997    0.50000000    0.02600000
opls_145-5    C    0.33439992    0.78151974    0.50000000    -0.19840000
opls_166-6    C    0.38987022    0.83668005    0.50000000    0.17660000
opls_166-7    C    0.50051995    0.94446970    0.50000000    0.17440000
opls_700-8    C    0.39083005    0.66635983    0.50000000    0.02600000
opls_145-9    C    0.21848001    0.55288005    0.50000000    -0.19850000
opls_166-10    C    0.16331998    0.55318970    0.50000000    0.17650000
opls_166-11    C    0.05553010    0.55604996    0.50000000    0.17440000
opls_700-12    C    0.66635988    0.27552979    0.50000000    0.02600000
opls_145-13    C    0.55287992    0.33439979    0.50000000    -0.19850000
opls_166-14    C    0.55318979    0.38986975    0.50000000    0.17650000
opls_166-15    C    0.55604987    0.50052013    0.50000000    0.17440000
opls_700-16    C    0.72447017    0.39083003    0.50000000    0.02600000
opls_145-17    C    0.66559985    0.21847979    0.50000000    -0.19850000
opls_166-18    C    0.61012978    0.16331995    0.50000000    0.17650000
opls_166-19    C    0.49947982    0.05552983    0.50000000    0.17440000
opls_700-20    C    0.60916972    0.33363971    0.50000000    0.02600000
opls_145-21    C    0.78151999    0.44711995    0.50000000    -0.19850000
opls_166-22    C    0.83667978    0.44680983    0.50000000    0.17650000
opls_166-23    C    0.94446990    0.44395004    0.50000000    0.17440000
opls_700-24    C    0.72446999    0.33363971    0.50000000    0.02600000
opls_145-25    C    0.66559996    0.44711995    0.50000000    -0.19850000
opls_166-26    C    0.61013005    0.44680983    0.50000000    0.17650000
opls_166-27    C    0.49948013    0.44395004    0.50000000    0.17440000
opls_700-28    C    0.60916991    0.27552979    0.50000000    0.02600000
opls_145-29    C    0.78151987    0.33439979    0.50000000    -0.19840000
opls_166-30    C    0.83667996    0.38986975    0.50000000    0.17650000
opls_166-31    C    0.94447026    0.50052013    0.50000000    0.17450000
opls_700-32    C    0.66635987    0.39083003    0.50000000    0.02600000
opls_145-33    C    0.55287994    0.21847979    0.50000000    -0.19840000
opls_166-34    C    0.55319016    0.16331995    0.50000000    0.17650000
opls_166-35    C    0.55605001    0.05552983    0.50000000    0.17440000
opls_700-36    C    0.27552978    0.66635983    0.50000000    0.02600000
opls_145-37    C    0.33440004    0.55288005    0.50000000    -0.19850000
opls_166-38    C    0.38986972    0.55318970    0.50000000    0.17650000
opls_166-39    C    0.50051987    0.55604996    0.50000000    0.17450000
opls_700-40    C    0.39082985    0.72446974    0.50000000    0.02600000
opls_145-41    C    0.21847990    0.66559974    0.50000000    -0.19830000
opls_166-42    C    0.16331981    0.61012978    0.50000000    0.17660000
opls_166-43    C    0.05552974    0.49947987    0.50000000    0.17440000
opls_700-44    C    0.33364013    0.60916997    0.50000000    0.02600000
opls_145-45    C    0.44711983    0.78151974    0.50000000    -0.19840000
opls_166-46    C    0.44680984    0.83668005    0.50000000    0.17650000
opls_166-47    C    0.44394976    0.94446970    0.50000000    0.17450000
opls_145-48    C    0.55668976    0.55668984    0.50000000    -0.26510000
opls_145-49    C    0.44330991    0.00000000    0.50000000    -0.26510000
opls_145-50    C    0.99999969    0.44330969    0.50000000    -0.26500000
opls_145-51    C    0.44331000    0.44330969    0.50000000    -0.26510000
opls_145-52    C    0.55669009    0.00000000    0.50000000    -0.26510000
opls_145-53    C    0.00000008    0.55668984    0.50000000    -0.26500000
opls_180-54    O    0.38675005    0.49612987    0.50000000    -0.11440000
opls_180-55    O    0.50386995    0.89062002    0.50000000    -0.11440000
opls_180-56    O    0.10938000    0.61325011    0.50000000    -0.11440000
opls_180-57    O    0.61324995    0.50387013    0.50000000    -0.11430000
opls_180-58    O    0.49613005    0.10937998    0.50000000    -0.11440000
opls_180-59    O    0.89062000    0.38674989    0.50000000    -0.11440000
opls_180-60    O    0.49612989    0.38674989    0.50000000    -0.11440000
opls_180-61    O    0.89062018    0.50387013    0.50000000    -0.11440000
opls_180-62    O    0.61324993    0.10937998    0.50000000    -0.11440000
opls_180-63    O    0.50387011    0.61325011    0.50000000    -0.11430000
opls_180-64    O    0.10937982    0.49612987    0.50000000    -0.11440000
opls_180-65    O    0.38675007    0.89062002    0.50000000    -0.11440000
opls_146-66    H    0.49343005    0.71164977    0.50000000    0.04570000
opls_146-67    H    0.28835006    0.78177981    0.50000000    0.04560000
opls_146-68    H    0.21822006    0.50656996    0.50000000    0.04560000
opls_146-69    H    0.50656971    0.28834977    0.50000000    0.04560000
opls_146-70    H    0.71164994    0.21822019    0.50000000    0.04560000
opls_146-71    H    0.78177994    0.49343004    0.50000000    0.04560000
opls_146-72    H    0.71165011    0.49343004    0.50000000    0.04560000
opls_146-73    H    0.78178005    0.28834977    0.50000000    0.04560000
opls_146-74    H    0.50657025    0.21822019    0.50000000    0.04560000
opls_146-75    H    0.28834989    0.50656996    0.50000000    0.04570000
opls_146-76    H    0.21821971    0.71164977    0.50000000    0.04560000
opls_146-77    H    0.49342975    0.78177981    0.50000000    0.04560000
opls_146-78    H    0.60313016    0.60260001    0.50000000    0.04560000
opls_146-79    H    0.39739985    0.00052996    0.50000000    0.04560000
opls_146-80    H    0.99947000    0.39687003    0.50000000    0.04560000
opls_146-81    H    0.39686984    0.39739999    0.50000000    0.04560000
opls_146-82    H    0.60260015    0.99947004    0.50000000    0.04560000
opls_146-83    H    0.00053000    0.60312997    0.50000000    0.04560000
