#======================================================================
# Crystal Data Generated By AuToFF
#----------------------------------------------------------------------

data_AuToFF_phase_1

_cell_length_a                         24.6865
_cell_length_b                         24.6865
_cell_length_c                         3.5002
_cell_angle_alpha                      90.00
_cell_angle_beta                       90.00
_cell_angle_gamma                      120.00
_symmetry_space_group_name_H-M_alt     'P 1'
_symmetry_space_group_IT_number        1

loop_
_space_group_symop_operation_xyz
   'x, y, z'

loop_
   _atom_site_label
   _atom_site_type_symbol
   _atom_site_fract_x
   _atom_site_fract_y
   _atom_site_fract_z
   _atom_site_charge
opls_700-0    C    0.33320997    0.72457966    0.50000000    0.02180000
opls_145-1    C    0.44705992    0.66608994    0.50000000    -0.19350000
opls_166-2    C    0.44598978    0.61033980    0.50000000    0.16190000
opls_166-3    C    0.44348973    0.49937977    0.50000000    0.12480000
opls_700-4    C    0.27516000    0.60923966    0.50000000    0.02150000
opls_145-5    C    0.33359981    0.78153986    0.50000000    -0.19350000
opls_166-6    C    0.38942994    0.83616974    0.50000000    0.16190000
opls_166-7    C    0.50037983    0.94466990    0.50000000    0.12480000
opls_700-8    C    0.39050009    0.66651979    0.50000000    0.02150000
opls_145-9    C    0.21818986    0.55269997    0.50000000    -0.19350000
opls_166-10    C    0.16357976    0.55388991    0.50000000    0.16190000
opls_166-11    C    0.05518981    0.55633997    0.50000000    0.12500000
opls_700-12    C    0.66595000    0.27543998    0.50000000    0.02180000
opls_145-13    C    0.55201983    0.33386001    0.50000000    -0.19350000
opls_166-14    C    0.55318970    0.38965973    0.50000000    0.16200000
opls_166-15    C    0.55584005    0.50058983    0.50000000    0.12490000
opls_700-16    C    0.72396999    0.39077998    0.50000000    0.01780000
opls_145-17    C    0.66561996    0.21852002    0.50000000    -0.19350000
opls_166-18    C    0.60977974    0.16392989    0.50000000    0.16190000
opls_166-19    C    0.49892992    0.05559017    0.50000000    0.12720000
opls_700-20    C    0.60862013    0.33349003    0.50000000    0.02180000
opls_145-21    C    0.78093996    0.44732014    0.50000000    -0.19400000
opls_166-22    C    0.83557971    0.44617978    0.50000000    0.16190000
opls_166-23    C    0.94416997    0.44385976    0.50000000    0.12490000
opls_700-24    C    0.72397987    0.33351014    0.50000000    0.02110000
opls_145-25    C    0.66551012    0.44732997    0.50000000    -0.19400000
opls_166-26    C    0.60971015    0.44611991    0.50000000    0.16190000
opls_166-27    C    0.49887985    0.44369979    0.50000000    0.12570000
opls_700-28    C    0.60861010    0.27543016    0.50000000    0.02110000
opls_145-29    C    0.78098009    0.33394000    0.50000000    -0.19350000
opls_166-30    C    0.83563994    0.38970978    0.50000000    0.16190000
opls_166-31    C    0.94410991    0.50071004    0.50000000    0.10130000
opls_700-32    C    0.66592004    0.39077998    0.50000000    0.02150000
opls_145-33    C    0.55200976    0.21849990    0.50000000    -0.19350000
opls_166-34    C    0.55327998    0.16392006    0.50000000    0.16190000
opls_166-35    C    0.55587004    0.05560981    0.50000000    0.12580000
opls_700-36    C    0.27516001    0.66653008    0.50000000    0.02180000
opls_145-37    C    0.33366991    0.55272008    0.50000000    -0.19400000
opls_166-38    C    0.38944979    0.55385998    0.50000000    0.16190000
opls_166-39    C    0.50037012    0.55620011    0.50000000    0.10120000
opls_700-40    C    0.39051978    0.72456984    0.50000000    0.02190000
opls_145-41    C    0.21818985    0.66614981    0.50000000    -0.19350000
opls_166-42    C    0.16353984    0.61036973    0.50000000    0.16190000
opls_166-43    C    0.05525018    0.49947004    0.50000000    0.12490000
opls_700-44    C    0.33320995    0.60923966    0.50000000    0.01780000
opls_145-45    C    0.44708985    0.78151974    0.50000000    -0.19350000
opls_166-46    C    0.44593977    0.83616974    0.50000000    0.16190000
opls_166-47    C    0.44352001    0.94466990    0.50000000    0.12500000
opls_700-48    C    0.55843964    0.55872968    0.50000000    -0.23260000
opls_470-49    C    0.62082985    0.61784992    0.50000000    0.54670000
opls_700-50    C    0.44085008    0.00010010    0.50000000    -0.22450000
opls_470-51    C    0.38161975    0.00322978    0.50000000    0.54630000
opls_700-52    C    0.99969996    0.44132973    0.50000000    -0.23660000
opls_470-53    C    0.00292980    0.38216972    0.50000000    0.54650000
opls_700-54    C    0.44083997    0.44124974    0.50000000    -0.23850000
opls_470-55    C    0.38150982    0.37891983    0.50000000    0.55250000
opls_700-56    C    0.55848029    0.00012021    0.50000000    -0.22110000
opls_470-57    C    0.62079978    0.00327983    0.50000000    0.54670000
opls_700-58    C    0.99962014    0.55884007    0.50000000    -0.23660000
opls_470-59    C    0.00264990    0.62114005    0.50000000    0.54640000
opls_180-60    O    0.38750983    0.49766969    0.50000000    -0.10280000
opls_180-61    O    0.50212003    0.89039971    0.50000000    -0.10280000
opls_180-62    O    0.10928995    0.61228983    0.50000000    -0.09880000
opls_180-63    O    0.61169996    0.50234995    0.50000000    -0.09880000
opls_180-64    O    0.49714025    0.10966016    0.50000000    -0.10470000
opls_180-65    O    0.88993984    0.38785003    0.50000000    -0.10280000
opls_180-66    O    0.49703011    0.38777986    0.50000000    -0.09880000
opls_180-67    O    0.88984999    0.50238971    0.50000000    -0.10440000
opls_180-68    O    0.61171991    0.10969992    0.50000000    -0.10470000
opls_180-69    O    0.50216989    0.61225989    0.50000000    -0.10720000
opls_180-70    O    0.10935976    0.49768980    0.50000000    -0.09880000
opls_180-71    O    0.38753016    0.89041000    0.50000000    -0.10450000
opls_269-72    O    0.67140996    0.05145015    0.50000000    -0.46330000
opls_268-73    O    0.61752975    0.94633975    0.50000000    -0.48690000
opls_269-74    O    0.05108994    0.37972996    0.50000000    -0.44930000
opls_268-75    O    0.94604000    0.32858010    0.50000000    -0.47100000
opls_268-76    O    0.32800999    0.38237974    0.50000000    -0.47110000
opls_269-77    O    0.37903002    0.32834015    0.50000000    -0.44840000
opls_269-78    O    0.37927992    0.05143004    0.50000000    -0.44830000
opls_268-79    O    0.32806996    0.94627988    0.50000000    -0.47110000
opls_269-80    O    0.05076994    0.67176977    0.50000000    -0.44930000
opls_268-81    O    0.94571005    0.61771989    0.50000000    -0.46200000
opls_268-82    O    0.61766986    0.67157004    0.50000000    -0.48690000
opls_269-83    O    0.67145020    0.62035002    0.50000000    -0.44830000
opls_146-84    H    0.49261994    0.70823990    0.50000000    0.11630000
opls_146-85    H    0.29143006    0.78493008    0.50000000    0.11480000
opls_146-86    H    0.21463976    0.50705969    0.50000000    0.11360000
opls_146-87    H    0.50639982    0.29176992    0.50000000    0.11480000
opls_146-88    H    0.70771979    0.21498994    0.50000000    0.11360000
opls_146-89    H    0.78434005    0.49287998    0.50000000    0.11480000
opls_146-90    H    0.70758990    0.49295996    0.50000000    0.11480000
opls_146-91    H    0.78438986    0.29177974    0.50000000    0.11480000
opls_146-92    H    0.50636973    0.21496983    0.50000000    0.11290000
opls_146-93    H    0.29152001    0.50714996    0.50000000    0.11480000
opls_146-94    H    0.21464002    0.70823008    0.50000000    0.11480000
opls_146-95    H    0.49264995    0.78489967    0.50000000    0.11620000
opls_270-96    H    0.66157979    0.95740989    0.50000000    0.33360000
opls_270-97    H    0.66176003    0.70447969    0.50000000    0.38260000
opls_270-98    H    0.95643984    0.66168003    0.50000000    0.38250000
opls_270-99    H    0.29487011    0.95706001    0.50000000    0.36390000
opls_270-100    H    0.29476003    0.33842007    0.50000000    0.36380000
opls_270-101    H    0.95691998    0.29545014    0.50000000    0.36090000
