#======================================================================
# Crystal Data Generated By AuToFF
#----------------------------------------------------------------------

data_AuToFF_phase_1

_cell_length_a                         31.4500
_cell_length_b                         29.2500
_cell_length_c                         4.6500
_cell_angle_alpha                      90.00
_cell_angle_beta                       90.00
_cell_angle_gamma                      90.00
_symmetry_space_group_name_H-M_alt     'P 1'
_symmetry_space_group_IT_number        1

loop_
_space_group_symop_operation_xyz
   'x, y, z'

loop_
   _atom_site_label
   _atom_site_type_symbol
   _atom_site_fract_x
   _atom_site_fract_y
   _atom_site_fract_z
   _atom_site_charge
opls_146-0    H    0.44870016    0.59664000    0.12870968    0.05060000
opls_146-1    H    0.38491002    0.64914017    0.11364946    0.05060000
opls_146-2    H    0.32457997    0.56899009    0.80195914    0.05060000
opls_146-3    H    0.38775008    0.51688000    0.81632903    0.05060000
opls_146-4    H    0.35322003    0.70549983    0.36590968    0.05060000
opls_146-5    H    0.29082003    0.75987009    0.38806022    0.05060000
opls_146-6    H    0.20540986    0.64488000    0.58181075    0.05070000
opls_146-7    H    0.26704006    0.59025983    0.54849032    0.05060000
opls_144-8    H    0.17644992    0.72380000    0.60241935    0.02990000
opls_547-9    H    0.16226995    0.94639009    0.54152043    0.05060000
opls_547-10    H    0.04760000    0.82639009    0.46172903    0.05060000
opls_146-11    H    0.14466010    0.91032991    0.10867097    0.05060000
opls_146-12    H    0.20502003    0.85352991    0.10904946    0.05060000
opls_146-13    H    0.14497011    0.77964000    0.82384946    0.05060000
opls_146-14    H    0.08900000    0.84100991    0.86018925    0.05060000
opls_146-15    H    0.55129984    0.40336000    0.12870968    0.05060000
opls_146-16    H    0.61508998    0.35086017    0.11364946    0.05060000
opls_146-17    H    0.67542003    0.43100991    0.80195914    0.05060000
opls_146-18    H    0.61224992    0.48312000    0.81632903    0.05060000
opls_146-19    H    0.64677997    0.29449983    0.36590968    0.05060000
opls_146-20    H    0.70917997    0.24012991    0.38806022    0.05060000
opls_146-21    H    0.79459014    0.35512000    0.58181075    0.05070000
opls_146-22    H    0.73295994    0.40973983    0.54849032    0.05060000
opls_144-23    H    0.82355008    0.27620000    0.60241935    0.02990000
opls_547-24    H    0.83773005    0.05360991    0.54152043    0.05060000
opls_547-25    H    0.95240000    0.17360991    0.46172903    0.05060000
opls_146-26    H    0.85533990    0.08967009    0.10867097    0.05060000
opls_146-27    H    0.79497997    0.14647009    0.10904946    0.05070000
opls_146-28    H    0.85502989    0.22036000    0.82384946    0.05060000
opls_146-29    H    0.91100000    0.15899009    0.86018925    0.05060000
opls_146-30    H    0.55129984    0.59664000    0.87129032    0.05060000
opls_146-31    H    0.61508998    0.64914017    0.88635054    0.05060000
opls_146-32    H    0.67542003    0.56899009    0.19804086    0.05060000
opls_146-33    H    0.61224992    0.51688000    0.18367097    0.05060000
opls_146-34    H    0.64677997    0.70549983    0.63409032    0.05060000
opls_146-35    H    0.70917997    0.75987009    0.61193978    0.05060000
opls_146-36    H    0.79459014    0.64488000    0.41818925    0.05060000
opls_146-37    H    0.73295994    0.59025983    0.45150968    0.05060000
opls_144-38    H    0.82355008    0.72380000    0.39758065    0.02990000
opls_547-39    H    0.83773005    0.94639009    0.45847957    0.05060000
opls_547-40    H    0.95240000    0.82639009    0.53827097    0.05060000
opls_146-41    H    0.85533990    0.91032991    0.89132903    0.05060000
opls_146-42    H    0.79497997    0.85352991    0.89095054    0.05060000
opls_146-43    H    0.85502989    0.77964000    0.17615054    0.05060000
opls_146-44    H    0.91100000    0.84100991    0.13981075    0.05060000
opls_146-45    H    0.44870016    0.40336000    0.87129032    0.05060000
opls_146-46    H    0.38491002    0.35086017    0.88635054    0.05060000
opls_146-47    H    0.32457997    0.43100991    0.19804086    0.05060000
opls_146-48    H    0.38775008    0.48312000    0.18367097    0.05060000
opls_146-49    H    0.35322003    0.29449983    0.63409032    0.05060000
opls_146-50    H    0.29082003    0.24012991    0.61193978    0.05060000
opls_146-51    H    0.20540986    0.35512000    0.41818925    0.05060000
opls_146-52    H    0.26704006    0.40973983    0.45150968    0.05060000
opls_144-53    H    0.17644992    0.27620000    0.39758065    0.02990000
opls_547-54    H    0.16226995    0.05360991    0.45847957    0.05060000
opls_547-55    H    0.04760000    0.17360991    0.53827097    0.05060000
opls_146-56    H    0.14466010    0.08967009    0.89132903    0.05060000
opls_146-57    H    0.20502003    0.14647009    0.89095054    0.05060000
opls_146-58    H    0.14497011    0.22036000    0.17615054    0.05060000
opls_146-59    H    0.08900000    0.15899009    0.13981075    0.05060000
opls_146-60    H    0.49910016    0.41388000    0.50018065    0.05060000
opls_146-61    H    0.50089984    0.58612000    0.50018065    0.05060000
opls_700-62    C    0.46091987    0.52427009    0.49230968    0.03470000
opls_700-63    C    0.42217997    0.55331009    0.47361075    0.07580000
opls_145-64    C    0.42088013    0.59024000    0.28067097    -0.07300000
opls_145-65    C    0.38568998    0.61944991    0.27243011    -0.07510000
opls_700-66    C    0.35104006    0.61262017    0.45867957    0.08220000
opls_145-67    C    0.35239014    0.57556991    0.65026022    -0.09100000
opls_145-68    C    0.38755994    0.54654017    0.65727957    -0.08950000
opls_700-69    C    0.31415994    0.64452991    0.45990108    0.08330000
opls_145-70    C    0.32011002    0.69163009    0.41427957    -0.07300000
opls_145-71    C    0.28568998    0.72180000    0.42761075    -0.07300000
opls_700-72    C    0.24464992    0.70556000    0.48961935    0.07480000
opls_145-73    C    0.23853990    0.65863009    0.53272043    -0.09100000
opls_145-74    C    0.27282003    0.62837983    0.51606022    -0.07300000
opls_142-75    C    0.20804006    0.73687009    0.51461935    0.01670000
opls_700-76    C    0.07764006    0.91405983    0.48950968    -0.10540000
opls_507-77    C    0.09144992    0.96276991    0.50103011    0.22120000
opls_716-78    C    0.13755994    0.97456991    0.51453978    -0.09950000
opls_716-79    C    0.02255994    0.85431009    0.48567957    -0.13110000
opls_507-80    C    0.03466995    0.89976991    0.49107957    0.22700000
opls_700-81    C    0.11231002    0.87878017    0.48050968    0.08330000
opls_145-82    C    0.14486995    0.88160000    0.27432903    -0.07300000
opls_145-83    C    0.17777997    0.84954017    0.26881075    -0.10840000
opls_145-84    C    0.17762989    0.81249983    0.45787957    0.24470000
opls_145-85    C    0.14540986    0.80950017    0.66627097    -0.13090000
opls_145-86    C    0.11377997    0.84297983    0.68170968    -0.07300000
opls_700-87    C    0.53908013    0.47572991    0.49230968    0.03470000
opls_700-88    C    0.57782003    0.44668991    0.47361075    0.07580000
opls_145-89    C    0.57911987    0.40976000    0.28067097    -0.07300000
opls_145-90    C    0.61431002    0.38055009    0.27243011    -0.07510000
opls_700-91    C    0.64895994    0.38737983    0.45867957    0.08230000
opls_145-92    C    0.64760986    0.42443009    0.65026022    -0.09100000
opls_145-93    C    0.61244006    0.45345983    0.65727957    -0.08950000
opls_700-94    C    0.68584006    0.35547009    0.45990108    0.08330000
opls_145-95    C    0.67988998    0.30836991    0.41427957    -0.07300000
opls_145-96    C    0.71431002    0.27820000    0.42761075    -0.07300000
opls_700-97    C    0.75535008    0.29444000    0.48961935    0.07480000
opls_145-98    C    0.76146010    0.34136991    0.53272043    -0.09090000
opls_145-99    C    0.72717997    0.37162017    0.51606022    -0.07300000
opls_142-100    C    0.79195994    0.26312991    0.51461935    0.01670000
opls_700-101    C    0.92235994    0.08594017    0.48950968    -0.10540000
opls_507-102    C    0.90855008    0.03723009    0.50103011    0.22130000
opls_716-103    C    0.86244006    0.02543009    0.51453978    -0.09950000
opls_716-104    C    0.97744006    0.14568991    0.48567957    -0.13100000
opls_507-105    C    0.96533005    0.10023009    0.49107957    0.22700000
opls_700-106    C    0.88768998    0.12122017    0.48050968    0.08330000
opls_145-107    C    0.85513005    0.11840000    0.27432903    -0.07300000
opls_145-108    C    0.82222003    0.15045983    0.26881075    -0.10840000
opls_145-109    C    0.82237011    0.18750017    0.45787957    0.24470000
opls_145-110    C    0.85459014    0.19049983    0.66627097    -0.13090000
opls_145-111    C    0.88622003    0.15702017    0.68170968    -0.07300000
opls_700-112    C    0.53908013    0.52427009    0.50769032    0.03480000
opls_700-113    C    0.57782003    0.55331009    0.52638925    0.07580000
opls_145-114    C    0.57911987    0.59024000    0.71932903    -0.07300000
opls_145-115    C    0.61431002    0.61944991    0.72756989    -0.07500000
opls_700-116    C    0.64895994    0.61262017    0.54132043    0.08230000
opls_145-117    C    0.64760986    0.57556991    0.34973978    -0.09100000
opls_145-118    C    0.61244006    0.54654017    0.34272043    -0.08950000
opls_700-119    C    0.68584006    0.64452991    0.54009892    0.08330000
opls_145-120    C    0.67988998    0.69163009    0.58572043    -0.07290000
opls_145-121    C    0.71431002    0.72180000    0.57238925    -0.07300000
opls_700-122    C    0.75535008    0.70556000    0.51038065    0.07480000
opls_145-123    C    0.76146010    0.65863009    0.46727957    -0.09100000
opls_145-124    C    0.72717997    0.62837983    0.48393978    -0.07300000
opls_142-125    C    0.79195994    0.73687009    0.48538065    0.01670000
opls_700-126    C    0.92235994    0.91405983    0.51050108    -0.10540000
opls_507-127    C    0.90855008    0.96276991    0.49896989    0.22130000
opls_716-128    C    0.86244006    0.97456991    0.48546022    -0.09950000
opls_716-129    C    0.97744006    0.85431009    0.51432043    -0.13110000
opls_507-130    C    0.96533005    0.89976991    0.50892043    0.22700000
opls_700-131    C    0.88768998    0.87878017    0.51949032    0.08340000
opls_145-132    C    0.85513005    0.88160000    0.72567097    -0.07300000
opls_145-133    C    0.82222003    0.84954017    0.73118925    -0.10840000
opls_145-134    C    0.82237011    0.81249983    0.54212043    0.24470000
opls_145-135    C    0.85459014    0.80950017    0.33372903    -0.13090000
opls_145-136    C    0.88622003    0.84297983    0.31829032    -0.07300000
opls_700-137    C    0.46091987    0.47572991    0.50769032    0.03470000
opls_700-138    C    0.42217997    0.44668991    0.52638925    0.07580000
opls_145-139    C    0.42088013    0.40976000    0.71932903    -0.07300000
opls_145-140    C    0.38568998    0.38055009    0.72756989    -0.07510000
opls_700-141    C    0.35104006    0.38737983    0.54132043    0.08220000
opls_145-142    C    0.35239014    0.42443009    0.34973978    -0.09090000
opls_145-143    C    0.38755994    0.45345983    0.34272043    -0.08950000
opls_700-144    C    0.31415994    0.35547009    0.54009892    0.08330000
opls_145-145    C    0.32011002    0.30836991    0.58572043    -0.07300000
opls_145-146    C    0.28568998    0.27820000    0.57238925    -0.07300000
opls_700-147    C    0.24464992    0.29444000    0.51038065    0.07480000
opls_145-148    C    0.23853990    0.34136991    0.46727957    -0.09100000
opls_145-149    C    0.27282003    0.37162017    0.48393978    -0.07300000
opls_142-150    C    0.20804006    0.26312991    0.48538065    0.01670000
opls_700-151    C    0.07764006    0.08594017    0.51050108    -0.10540000
opls_507-152    C    0.09144992    0.03723009    0.49896989    0.22130000
opls_716-153    C    0.13755994    0.02543009    0.48546022    -0.09940000
opls_716-154    C    0.02255994    0.14568991    0.51432043    -0.13100000
opls_507-155    C    0.03466995    0.10023009    0.50892043    0.22710000
opls_700-156    C    0.11231002    0.12122017    0.51949032    0.08330000
opls_145-157    C    0.14486995    0.11840000    0.72567097    -0.07300000
opls_145-158    C    0.17777997    0.15045983    0.73118925    -0.10840000
opls_145-159    C    0.17762989    0.18750017    0.54212043    0.24480000
opls_145-160    C    0.14540986    0.19049983    0.33372903    -0.13090000
opls_145-161    C    0.11377997    0.15702017    0.31829032    -0.07300000
opls_145-162    C    0.50000000    0.45284000    0.50000000    -0.07950000
opls_145-163    C    0.50000000    0.54716000    0.50000000    -0.07950000
opls_750-164    N    0.21120000    0.77940000    0.43770968    -0.27640000
opls_750-165    N    0.78880000    0.22060000    0.43770968    -0.27640000
opls_750-166    N    0.78880000    0.77940000    0.56229032    -0.27650000
opls_750-167    N    0.21120000    0.22060000    0.56229032    -0.27640000
opls_542-168    N    0.06589984    0.00000000    0.50000000    -0.22720000
opls_542-169    N    0.93410016    0.00000000    0.50000000    -0.22710000
opls_542-170    N    0.00000000    0.92762017    0.50000000    -0.23620000
opls_542-171    N    0.00000000    0.07238017    0.50000000    -0.23630000
