#======================================================================
# Crystal Data Generated By AuToFF
#----------------------------------------------------------------------

data_AuToFF_phase_1

_cell_length_a                         54.1841
_cell_length_b                         54.1841
_cell_length_c                         49.0914
_cell_angle_alpha                      90.00
_cell_angle_beta                       90.00
_cell_angle_gamma                      120.00
_symmetry_space_group_name_H-M_alt     'P 1'
_symmetry_space_group_IT_number        1

loop_
_space_group_symop_operation_xyz
   'x, y, z'

loop_
   _atom_site_label
   _atom_site_type_symbol
   _atom_site_fract_x
   _atom_site_fract_y
   _atom_site_fract_z
   _atom_site_charge
opls_700-0    C    0.33085991    0.63975986    0.38777994    0.03680000
opls_145-1    C    0.32872004    0.61640995    0.37367991    -0.17440000
opls_700-2    C    0.32666993    0.59312995    0.38841997    0.02760000
opls_145-3    C    0.34578004    0.57036992    0.35723996    -0.12130000
opls_700-4    C    0.32346007    0.56807007    0.37349006    0.06590000
opls_145-5    C    0.29934997    0.54123991    0.37785009    -0.11970000
opls_145-6    C    0.29832986    0.51675990    0.36749003    -0.12080000
opls_700-7    C    0.32152003    0.51878995    0.35290010    0.05840000
opls_145-8    C    0.34494006    0.54585005    0.34715999    -0.13290000
opls_142-9    C    0.32198003    0.49252005    0.34620993    0.06800000
opls_145-10    C    0.37551990    0.47450997    0.32435009    -0.30780000
opls_145-11    C    0.35023000    0.46983994    0.33662006    0.18580000
opls_145-12    C    0.33148987    0.44282992    0.34770999    -0.17130000
opls_145-13    C    0.33812997    0.42105999    0.34645009    -0.12260000
opls_700-14    C    0.36358997    0.42581994    0.33428992    -0.05280000
opls_727-15    C    0.38222000    0.45275005    0.32304008    0.22060000
opls_700-16    C    0.38506994    0.35912005    0.33363990    0.04400000
opls_145-17    C    0.35688998    0.42490998    0.62617994    -0.13390000
opls_700-18    C    0.33254999    0.40728007    0.64201999    0.04400000
opls_145-19    C    0.30746006    0.40832003    0.63684006    -0.13440000
opls_145-20    C    0.30602007    0.42444008    0.61542001    -0.12260000
opls_700-21    C    0.32995999    0.44093988    0.59909006    0.07000000
opls_145-22    C    0.35542996    0.44110994    0.60473993    -0.12790000
opls_727-23    C    0.31579995    0.47511008    0.58001992    0.30090000
opls_700-24    C    0.32839000    0.45807005    0.57634005    -0.04210000
opls_145-25    C    0.33922003    0.45718992    0.55056996    -0.13380000
opls_145-26    C    0.33737987    0.47286990    0.52883010    -0.17340000
opls_145-27    C    0.32479997    0.48990992    0.53260999    0.18610000
opls_145-28    C    0.31393007    0.49067007    0.55824992    -0.30840000
opls_142-29    C    0.33587004    0.51337001    0.48808997    0.06950000
opls_700-30    C    0.32788995    0.57111004    0.43391001    0.05990000
opls_700-31    C    0.32743996    0.59380997    0.41743992    0.02750000
opls_145-32    C    0.32921998    0.61728987    0.43131995    -0.07310000
opls_700-33    C    0.33088002    0.63994995    0.41663998    0.04850000
opls_145-34    C    0.30845995    0.55833002    0.45536000    -0.12120000
opls_145-35    C    0.31047998    0.53895988    0.47265000    -0.13000000
opls_700-36    C    0.33201002    0.53202006    0.46875990    0.06270000
opls_145-37    C    0.34901988    0.56371992    0.42964002    -0.12920000
opls_145-38    C    0.35088992    0.54413987    0.44680005    -0.12770000
opls_145-39    C    0.36523002    0.37436998    0.64264006    -0.13340000
opls_145-40    C    0.38702003    0.36775002    0.64235997    -0.12070000
opls_700-41    C    0.40283999    0.37080001    0.66599995    0.07120000
opls_145-42    C    0.39607987    0.38004991    0.69004001    -0.12290000
opls_145-43    C    0.37428997    0.38667008    0.69036002    -0.13370000
opls_701-44    C    0.33332993    0.38992998    0.66666993    0.00800000
opls_701-45    C    0.33332998    0.66666993    0.95841003    -0.08850000
opls_701-46    C    0.33332998    0.66666993    0.90398990    -0.08210000
opls_700-47    C    0.36023985    0.69109987    0.38777994    0.06060000
opls_145-48    C    0.38358997    0.71230997    0.37367991    -0.17440000
opls_700-49    C    0.40686990    0.73353989    0.38841997    0.02760000
opls_145-50    C    0.42962996    0.77540985    0.35723996    -0.12130000
opls_700-51    C    0.43192989    0.75538995    0.37349006    0.06590000
opls_145-52    C    0.45875996    0.75811005    0.37785009    -0.11970000
opls_145-53    C    0.48323994    0.78156992    0.36749003    -0.12080000
opls_700-54    C    0.48120998    0.80272994    0.35290010    0.05840000
opls_145-55    C    0.45414988    0.79908986    0.34715999    -0.13300000
opls_142-56    C    0.50748006    0.82945994    0.34620993    0.06800000
opls_145-57    C    0.52548988    0.90100993    0.32435009    -0.30770000
opls_145-58    C    0.53015992    0.88038993    0.33662006    0.18580000
opls_145-59    C    0.55716991    0.88865996    0.34770999    -0.17130000
opls_145-60    C    0.57894000    0.91706988    0.34645009    -0.12260000
opls_700-61    C    0.57417992    0.93777002    0.33428992    -0.05280000
opls_727-62    C    0.54724995    0.92946993    0.32304008    0.22050000
opls_700-63    C    0.64088006    0.02595003    0.33363990    0.04400000
opls_145-64    C    0.57509004    0.93197991    0.62617994    -0.13390000
opls_700-65    C    0.59272004    0.92527002    0.64201999    0.04400000
opls_145-66    C    0.59167992    0.89913992    0.63684006    -0.13440000
opls_145-67    C    0.57555994    0.88157991    0.61542001    -0.12260000
opls_700-68    C    0.55905998    0.88901990    0.59909006    0.07000000
opls_145-69    C    0.55889000    0.91431995    0.60473993    -0.12790000
opls_727-70    C    0.52489008    0.84069003    0.58001992    0.24690000
opls_700-71    C    0.54193006    0.87031999    0.57634005    -0.04210000
opls_145-72    C    0.54280999    0.88203000    0.55056996    -0.13400000
opls_145-73    C    0.52712998    0.86450984    0.52883010    -0.17350000
opls_145-74    C    0.51009003    0.83488990    0.53260999    0.18590000
opls_145-75    C    0.50933007    0.82326002    0.55824992    -0.30830000
opls_142-76    C    0.48662998    0.82249987    0.48808997    0.06950000
opls_700-77    C    0.42889008    0.75678005    0.43391001    0.05990000
opls_700-78    C    0.40619004    0.73363003    0.41743992    0.02750000
opls_145-79    C    0.38270993    0.71193000    0.43131995    -0.07310000
opls_700-80    C    0.36005010    0.69093002    0.41663998    0.04230000
opls_145-81    C    0.44166999    0.75013005    0.45536000    -0.12130000
opls_145-82    C    0.46104002    0.77152001    0.47265000    -0.12990000
opls_700-83    C    0.46798009    0.79999003    0.46875990    0.06270000
opls_145-84    C    0.43627992    0.78529993    0.42964002    -0.12920000
opls_145-85    C    0.45585995    0.80674999    0.44680005    -0.12770000
opls_145-86    C    0.62562993    0.99085985    0.64264006    -0.13330000
opls_145-87    C    0.63224993    0.01926998    0.64235997    -0.12070000
opls_700-88    C    0.62920006    0.03203998    0.66599995    0.07090000
opls_145-89    C    0.61995000    0.01602990    0.69004001    -0.12290000
opls_145-90    C    0.61332992    0.98761998    0.69036002    -0.13370000
opls_701-91    C    0.61006987    0.94339988    0.66666993    0.00240000
opls_700-92    C    0.30889995    0.66914006    0.38777994    0.04400000
opls_145-93    C    0.28768989    0.67127986    0.37367991    -0.17430000
opls_700-94    C    0.26646006    0.67332995    0.38841997    0.02760000
opls_145-95    C    0.22459008    0.65422002    0.35723996    -0.12130000
opls_700-96    C    0.24461004    0.67653998    0.37349006    0.06590000
opls_145-97    C    0.24189007    0.70065004    0.37785009    -0.11970000
opls_145-98    C    0.21842991    0.70166997    0.36749003    -0.12070000
opls_700-99    C    0.19726988    0.67847989    0.35290010    0.05840000
opls_145-100    C    0.20090995    0.65505987    0.34715999    -0.13300000
opls_142-101    C    0.17053992    0.67802001    0.34620993    0.06810000
opls_145-102    C    0.09898993    0.62447989    0.32435009    -0.30770000
opls_145-103    C    0.11960998    0.64976992    0.33662006    0.18580000
opls_145-104    C    0.11133992    0.66850990    0.34770999    -0.17130000
opls_145-105    C    0.08292992    0.66186991    0.34645009    -0.12260000
opls_700-106    C    0.06222993    0.63641004    0.33428992    -0.05280000
opls_727-107    C    0.07053005    0.61778002    0.32304008    0.22050000
opls_700-108    C    0.97405000    0.61492993    0.33363990    0.04400000
opls_145-109    C    0.06801987    0.64310990    0.62617994    -0.13390000
opls_700-110    C    0.07472997    0.66744991    0.64201999    0.04400000
opls_145-111    C    0.10086002    0.69254004    0.63684006    -0.13440000
opls_145-112    C    0.11842000    0.69398001    0.61542001    -0.12260000
opls_700-113    C    0.11097993    0.67004001    0.59909006    0.07000000
opls_145-114    C    0.08567993    0.64456990    0.60473993    -0.12790000
opls_727-115    C    0.15930998    0.68419989    0.58001992    0.25480000
opls_700-116    C    0.12967994    0.67160996    0.57634005    -0.04210000
opls_145-117    C    0.11796987    0.66077987    0.55056996    -0.13400000
opls_145-118    C    0.13549003    0.66262005    0.52883010    -0.17350000
opls_145-119    C    0.16510990    0.67519996    0.53260999    0.18590000
opls_145-120    C    0.17674004    0.68606991    0.55824992    -0.30840000
opls_142-121    C    0.17749987    0.66412991    0.48808997    0.06950000
opls_700-122    C    0.24321997    0.67210991    0.43391001    0.05990000
opls_700-123    C    0.26637001    0.67256000    0.41743992    0.02760000
opls_145-124    C    0.28806999    0.67077991    0.43131995    -0.07310000
opls_700-125    C    0.30907006    0.66912002    0.41663998    0.05770000
opls_145-126    C    0.24986988    0.69153993    0.45536000    -0.12130000
opls_145-127    C    0.22847989    0.68951989    0.47265000    -0.13000000
opls_700-128    C    0.20000990    0.66798992    0.46875990    0.06270000
opls_145-129    C    0.21469990    0.65097994    0.42964002    -0.12920000
opls_145-130    C    0.19325002    0.64910993    0.44680005    -0.12770000
opls_145-131    C    0.00913994    0.63476996    0.64264006    -0.13340000
opls_145-132    C    0.98073004    0.61298000    0.64235997    -0.12070000
opls_700-133    C    0.96795995    0.59716001    0.66599995    0.07120000
opls_145-134    C    0.98397002    0.60391997    0.69004001    -0.12280000
opls_145-135    C    0.01237992    0.62570994    0.69036002    -0.13370000
opls_701-136    C    0.05659991    0.66666993    0.66666993    0.00800000
opls_700-137    C    0.63975990    0.33085994    0.61222006    0.06330000
opls_145-138    C    0.61640992    0.32871992    0.62632009    -0.17430000
opls_700-139    C    0.59313011    0.32667005    0.61158003    0.02760000
opls_145-140    C    0.57037006    0.34577998    0.64276004    -0.12120000
opls_700-141    C    0.56807006    0.32346002    0.62650994    0.06590000
opls_145-142    C    0.54124003    0.29934996    0.62214991    -0.11970000
opls_145-143    C    0.51675994    0.29833003    0.63250997    -0.12080000
opls_700-144    C    0.51878989    0.32151990    0.64709990    0.05840000
opls_145-145    C    0.54584997    0.34493992    0.65284001    -0.13300000
opls_142-146    C    0.49251991    0.32197999    0.65379007    0.06810000
opls_145-147    C    0.47450994    0.37551990    0.67564991    -0.30770000
opls_145-148    C    0.46984006    0.35023008    0.66337994    0.18580000
opls_145-149    C    0.44282992    0.33148989    0.65229001    -0.17130000
opls_145-150    C    0.42106000    0.33813009    0.65354991    -0.12260000
opls_700-151    C    0.42581989    0.36358996    0.66571008    -0.05280000
opls_727-152    C    0.45275003    0.38221998    0.67695992    0.22050000
opls_700-153    C    0.35912007    0.38507007    0.66636010    0.04400000
opls_145-154    C    0.42490986    0.35688988    0.37382006    -0.13390000
opls_700-155    C    0.40727996    0.33254988    0.35798001    0.04400000
opls_145-156    C    0.40831998    0.30745996    0.36315994    -0.13440000
opls_145-157    C    0.42443999    0.30601999    0.38457999    -0.12260000
opls_700-158    C    0.44093992    0.32995999    0.40090994    0.07000000
opls_145-159    C    0.44110993    0.35542989    0.39526007    -0.12780000
opls_727-160    C    0.47510998    0.31579989    0.41998008    0.23050000
opls_700-161    C    0.45806997    0.32839004    0.42365995    -0.04210000
opls_145-162    C    0.45718989    0.33921991    0.44943004    -0.13400000
opls_145-163    C    0.47286998    0.33737995    0.47116990    -0.17350000
opls_145-164    C    0.48990993    0.32480004    0.46739001    0.18590000
opls_145-165    C    0.49067003    0.31392988    0.44175008    -0.30840000
opls_142-166    C    0.51336985    0.33586987    0.51191003    0.06950000
opls_700-167    C    0.57110995    0.32788987    0.56608999    0.05990000
opls_700-168    C    0.59381001    0.32744000    0.58256008    0.02760000
opls_145-169    C    0.61728997    0.32921987    0.56868005    -0.07300000
opls_700-170    C    0.63995004    0.33087998    0.58336002    0.06030000
opls_145-171    C    0.55832994    0.30846007    0.54464000    -0.12130000
opls_145-172    C    0.53895989    0.31047989    0.52735000    -0.12990000
opls_700-173    C    0.53201998    0.33201008    0.53124010    0.06270000
opls_145-174    C    0.56371996    0.34902006    0.57035998    -0.12920000
opls_145-175    C    0.54414010    0.35089007    0.55319995    -0.12770000
opls_145-176    C    0.37436998    0.36523004    0.35735994    -0.13340000
opls_145-177    C    0.36775004    0.38702000    0.35764003    -0.12060000
opls_700-178    C    0.37079994    0.40283999    0.33400005    0.07120000
opls_145-179    C    0.38005005    0.39608003    0.30995999    -0.12290000
opls_145-180    C    0.38666998    0.37429006    0.30963998    -0.13370000
opls_701-181    C    0.38992998    0.33333007    0.33333007    0.00080000
opls_701-182    C    0.66667002    0.33333007    0.04158997    -0.08310000
opls_701-183    C    0.66667002    0.33333007    0.09601010    -0.07550000
opls_700-184    C    0.69109994    0.36023992    0.61222006    0.04400000
opls_145-185    C    0.71231008    0.38359005    0.62632009    -0.17440000
opls_700-186    C    0.73353998    0.40687005    0.61158003    0.02760000
opls_145-187    C    0.77541002    0.42962987    0.64276004    -0.12120000
opls_700-188    C    0.75539000    0.43192993    0.62650994    0.06590000
opls_145-189    C    0.75810995    0.45875988    0.62214991    -0.11970000
opls_145-190    C    0.78156986    0.48323989    0.63250997    -0.12080000
opls_700-191    C    0.80273007    0.48121005    0.64709990    0.05840000
opls_145-192    C    0.79909001    0.45414995    0.65284001    -0.13290000
opls_142-193    C    0.82945997    0.50747995    0.65379007    0.06800000
opls_145-194    C    0.90100993    0.52549003    0.67564991    -0.30780000
opls_145-195    C    0.88039006    0.53016006    0.66337994    0.18590000
opls_145-196    C    0.88865984    0.55716986    0.65229001    -0.17130000
opls_145-197    C    0.91706998    0.57894001    0.65354991    -0.12260000
opls_700-198    C    0.93777002    0.57418006    0.66571008    -0.05280000
opls_727-199    C    0.92946996    0.54724995    0.67695992    0.22060000
opls_700-200    C    0.02594990    0.64087995    0.66636010    0.04400000
opls_145-201    C    0.93198000    0.57509002    0.37382006    -0.13390000
opls_700-202    C    0.92526992    0.59271993    0.35798001    0.04400000
opls_145-203    C    0.89914003    0.59167997    0.36315994    -0.13440000
opls_145-204    C    0.88157999    0.57555992    0.38457999    -0.12260000
opls_700-205    C    0.88902001    0.55905991    0.40090994    0.07000000
opls_145-206    C    0.91432002    0.55889006    0.39526007    -0.12790000
opls_727-207    C    0.84068987    0.52488992    0.41998008    0.22670000
opls_700-208    C    0.87031995    0.54192995    0.42365995    -0.04210000
opls_145-209    C    0.88203001    0.54280987    0.44943004    -0.13400000
opls_145-210    C    0.86450987    0.52712989    0.47116990    -0.17350000
opls_145-211    C    0.83488994    0.51008987    0.46739001    0.18590000
opls_145-212    C    0.82325999    0.50932993    0.44175008    -0.30830000
opls_142-213    C    0.82250003    0.48662999    0.51191003    0.06950000
opls_700-214    C    0.75677991    0.42888996    0.56608999    0.05990000
opls_700-215    C    0.73362999    0.40619003    0.58256008    0.02750000
opls_145-216    C    0.71193000    0.38270991    0.56868005    -0.07310000
opls_700-217    C    0.69093007    0.36005005    0.58336002    0.04240000
opls_145-218    C    0.75012993    0.44166998    0.54464000    -0.12130000
opls_145-219    C    0.77151999    0.46103991    0.52735000    -0.13000000
opls_700-220    C    0.79998996    0.46797994    0.53124010    0.06270000
opls_145-221    C    0.78529986    0.43627987    0.57035998    -0.12920000
opls_145-222    C    0.80674994    0.45585992    0.55319995    -0.12770000
opls_145-223    C    0.99086005    0.62563002    0.35735994    -0.13340000
opls_145-224    C    0.01927001    0.63224998    0.35764003    -0.12070000
opls_700-225    C    0.03203998    0.62919999    0.33400005    0.07120000
opls_145-226    C    0.01602985    0.61994987    0.30995999    -0.12290000
opls_145-227    C    0.98761989    0.61332992    0.30963998    -0.13370000
opls_701-228    C    0.94339996    0.61007002    0.33333007    0.00080000
opls_700-229    C    0.66913988    0.30889992    0.61222006    0.03680000
opls_145-230    C    0.67128000    0.28769003    0.62632009    -0.17430000
opls_700-231    C    0.67332990    0.26645990    0.61158003    0.02760000
opls_145-232    C    0.65422000    0.22458993    0.64276004    -0.12130000
opls_700-233    C    0.67653994    0.24461005    0.62650994    0.06590000
opls_145-234    C    0.70064991    0.24188995    0.62214991    -0.11960000
opls_145-235    C    0.70167002    0.21843008    0.63250997    -0.12080000
opls_700-236    C    0.67848004    0.19727006    0.64709990    0.05840000
opls_145-237    C    0.65505991    0.20090992    0.65284001    -0.13290000
opls_142-238    C    0.67802012    0.17054006    0.65379007    0.06800000
opls_145-239    C    0.62447995    0.09899007    0.67564991    -0.30770000
opls_145-240    C    0.64976999    0.11961007    0.66337994    0.18580000
opls_145-241    C    0.66850995    0.11134004    0.65229001    -0.17130000
opls_145-242    C    0.66187002    0.08292990    0.65354991    -0.12260000
opls_700-243    C    0.63640990    0.06222998    0.66571008    -0.05280000
opls_727-244    C    0.61778001    0.07053007    0.67695992    0.22050000
opls_700-245    C    0.61493004    0.97404997    0.66636010    0.04400000
opls_145-246    C    0.64311013    0.06802009    0.37382006    -0.13390000
opls_700-247    C    0.66745001    0.07472998    0.35798001    0.04400000
opls_145-248    C    0.69253999    0.10086008    0.36315994    -0.13430000
opls_145-249    C    0.69398002    0.11842009    0.38457999    -0.12260000
opls_700-250    C    0.67004007    0.11098010    0.40090994    0.07000000
opls_145-251    C    0.64457005    0.08568005    0.39526007    -0.12790000
opls_727-252    C    0.68420004    0.15930997    0.41998008    0.23050000
opls_700-253    C    0.67161007    0.12968001    0.42365995    -0.04210000
opls_145-254    C    0.66077999    0.11797000    0.44943004    -0.13400000
opls_145-255    C    0.66262004    0.13548995    0.47116990    -0.17350000
opls_145-256    C    0.67520002    0.16510989    0.46739001    0.18590000
opls_145-257    C    0.68607005    0.17673998    0.44175008    -0.30830000
opls_142-258    C    0.66413001    0.17749992    0.51191003    0.06950000
opls_700-259    C    0.67211003    0.24321995    0.56608999    0.05990000
opls_700-260    C    0.67256000    0.26636997    0.58256008    0.02750000
opls_145-261    C    0.67077993    0.28807000    0.56868005    -0.07310000
opls_700-262    C    0.66912008    0.30906998    0.58336002    0.05510000
opls_145-263    C    0.69153994    0.24986995    0.54464000    -0.12130000
opls_145-264    C    0.68952001    0.22847999    0.52735000    -0.12990000
opls_700-265    C    0.66799006    0.20000997    0.53124010    0.06270000
opls_145-266    C    0.65097999    0.21470007    0.57035998    -0.12920000
opls_145-267    C    0.64910996    0.19325001    0.55319995    -0.12770000
opls_145-268    C    0.63476997    0.00913994    0.35735994    -0.13330000
opls_145-269    C    0.61297995    0.98073002    0.35764003    -0.12070000
opls_700-270    C    0.59716008    0.96796002    0.33400005    0.07120000
opls_145-271    C    0.60391999    0.98396989    0.30995999    -0.12290000
opls_145-272    C    0.62570994    0.01238002    0.30963998    -0.13370000
opls_701-273    C    0.66666988    0.05659991    0.33333007    0.03100000
opls_700-274    C    0.99785996    0.97276004    0.72078001    0.04400000
opls_145-275    C    0.99571998    0.94940992    0.70667999    -0.17440000
opls_700-276    C    0.99366987    0.92612991    0.72142005    0.02760000
opls_145-277    C    0.01277998    0.90336988    0.69024004    -0.12130000
opls_700-278    C    0.99046001    0.90107003    0.70648994    0.06590000
opls_145-279    C    0.96634991    0.87423987    0.71084997    -0.11970000
opls_145-280    C    0.96532999    0.84975986    0.70048990    -0.12080000
opls_700-281    C    0.98851997    0.85178992    0.68589997    0.05840000
opls_145-282    C    0.01194001    0.87885002    0.68016007    -0.13300000
opls_142-283    C    0.98897997    0.82552002    0.67921000    0.06800000
opls_145-284    C    0.04252003    0.80750993    0.65734996    -0.30770000
opls_145-285    C    0.01722994    0.80283990    0.66961993    0.18580000
opls_145-286    C    0.99849000    0.77582989    0.68071006    -0.17130000
opls_145-287    C    0.00512992    0.75405995    0.67944996    -0.12260000
opls_700-288    C    0.03058991    0.75881991    0.66728999    -0.05280000
opls_727-289    C    0.04921995    0.78575001    0.65603996    0.22060000
opls_700-290    C    0.05207007    0.69212001    0.66663998    0.05770000
opls_145-291    C    0.02388992    0.75790994    0.95918002    -0.13390000
opls_700-292    C    0.99954994    0.74028004    0.97502006    0.04400000
opls_145-293    C    0.97446001    0.74132000    0.96983993    -0.13440000
opls_145-294    C    0.97302001    0.75744004    0.94842009    -0.12260000
opls_700-295    C    0.99696004    0.77394005    0.93208994    0.07000000
opls_145-296    C    0.02242990    0.77410990    0.93774001    -0.12790000
opls_727-297    C    0.98280008    0.80811004    0.91302000    0.25480000
opls_700-298    C    0.99538994    0.79107001    0.90933993    -0.04210000
opls_145-299    C    0.00621998    0.79018988    0.88357003    -0.13400000
opls_145-300    C    0.00438000    0.80586986    0.86182997    -0.17340000
opls_145-301    C    0.99179991    0.82290988    0.86561007    0.18600000
opls_145-302    C    0.98093001    0.82367004    0.89124999    -0.30830000
opls_142-303    C    0.00286998    0.84636997    0.82109005    0.06950000
opls_700-304    C    0.99489008    0.90411000    0.76691009    0.05990000
opls_700-305    C    0.99443990    0.92680993    0.75044000    0.02750000
opls_145-306    C    0.99621992    0.95028984    0.76432002    -0.07310000
opls_700-307    C    0.99787996    0.97294992    0.74964006    0.05770000
opls_145-308    C    0.97546008    0.89132998    0.78836008    -0.12130000
opls_145-309    C    0.97747992    0.87195984    0.80565007    -0.13000000
opls_700-310    C    0.99900996    0.86502002    0.80175998    0.06270000
opls_145-311    C    0.01602001    0.89671988    0.76264010    -0.12920000
opls_145-312    C    0.01788997    0.87714005    0.77979992    -0.12770000
opls_145-313    C    0.03222997    0.70736994    0.97563993    -0.13340000
opls_145-314    C    0.05401997    0.70074999    0.97536004    -0.12070000
opls_700-315    C    0.06983994    0.70379997    0.99900003    0.07090000
opls_145-316    C    0.06308000    0.71304988    0.02304008    -0.12290000
opls_145-317    C    0.04129010    0.71967004    0.02336010    -0.13370000
opls_701-318    C    0.00033006    0.72292994    0.99967000    0.00800000
opls_701-319    C    0.00032993    0.99966990    0.29140990    -0.08860000
opls_701-320    C    0.00032993    0.99966990    0.23698998    -0.08210000
opls_700-321    C    0.02724009    0.02410004    0.72078001    0.03680000
opls_145-322    C    0.05058991    0.04530993    0.70667999    -0.17440000
opls_700-323    C    0.07386995    0.06654007    0.72142005    0.02760000
opls_145-324    C    0.09663001    0.10841003    0.69024004    -0.12120000
opls_700-325    C    0.09893002    0.08838992    0.70648994    0.06600000
opls_145-326    C    0.12576008    0.09111001    0.71084997    -0.11970000
opls_145-327    C    0.15023999    0.11457010    0.70048990    -0.12080000
opls_700-328    C    0.14820992    0.13572990    0.68589997    0.05840000
opls_145-329    C    0.12114993    0.13209004    0.68016007    -0.13300000
opls_142-330    C    0.17448000    0.16245990    0.67921000    0.06800000
opls_145-331    C    0.19249001    0.23400990    0.65734996    -0.30770000
opls_145-332    C    0.19715986    0.21338989    0.66961993    0.18580000
opls_145-333    C    0.22417004    0.22165993    0.68071006    -0.17130000
opls_145-334    C    0.24594006    0.25007006    0.67944996    -0.12260000
opls_700-335    C    0.24118005    0.27076998    0.66728999    -0.05280000
opls_727-336    C    0.21424989    0.26246990    0.65603996    0.22050000
opls_700-337    C    0.30788001    0.35894999    0.66663998    0.04400000
opls_145-338    C    0.24209009    0.26498008    0.95918002    -0.13390000
opls_700-339    C    0.25971998    0.25826999    0.97502006    0.04400000
opls_145-340    C    0.25867986    0.23213989    0.96983993    -0.13440000
opls_145-341    C    0.24255999    0.21458009    0.94842009    -0.12260000
opls_700-342    C    0.22606003    0.22202008    0.93208994    0.07000000
opls_145-343    C    0.22588995    0.24731991    0.93774001    -0.12790000
opls_727-344    C    0.19189002    0.17368999    0.91302000    0.30100000
opls_700-345    C    0.20893000    0.20331995    0.90933993    -0.04210000
opls_145-346    C    0.20980993    0.21502996    0.88357003    -0.13400000
opls_145-347    C    0.19413004    0.19751002    0.86182997    -0.17350000
opls_145-348    C    0.17709008    0.16789008    0.86561007    0.18590000
opls_145-349    C    0.17633002    0.15625998    0.89124999    -0.30830000
opls_142-350    C    0.15363003    0.15550004    0.82109005    0.06950000
opls_700-351    C    0.09589002    0.08978001    0.76691009    0.05990000
opls_700-352    C    0.07318998    0.06663000    0.75044000    0.02750000
opls_145-353    C    0.04971006    0.04492996    0.76432002    -0.07310000
opls_700-354    C    0.02705005    0.02392999    0.74964006    0.04850000
opls_145-355    C    0.10866993    0.08313001    0.78836008    -0.12130000
opls_145-356    C    0.12803997    0.10451998    0.80565007    -0.13000000
opls_700-357    C    0.13498003    0.13298999    0.80175998    0.06270000
opls_145-358    C    0.10327987    0.11829989    0.76264010    -0.12910000
opls_145-359    C    0.12285989    0.13974995    0.77979992    -0.12770000
opls_145-360    C    0.29262998    0.32386002    0.97563993    -0.13340000
opls_145-361    C    0.29925005    0.35226994    0.97536004    -0.12070000
opls_700-362    C    0.29620000    0.36503994    0.99900003    0.07120000
opls_145-363    C    0.28695005    0.34903008    0.02304008    -0.12290000
opls_145-364    C    0.28033005    0.32061994    0.02336010    -0.13370000
opls_701-365    C    0.27707010    0.27640005    0.99967000    0.00800000
opls_700-366    C    0.97590008    0.00214002    0.72078001    0.06070000
opls_145-367    C    0.95468994    0.00428004    0.70667999    -0.17430000
opls_700-368    C    0.93346001    0.00632991    0.72142005    0.02760000
opls_145-369    C    0.89159002    0.98721998    0.69024004    -0.12130000
opls_700-370    C    0.91160999    0.00953994    0.70648994    0.06590000
opls_145-371    C    0.90889002    0.03365000    0.71084997    -0.11970000
opls_145-372    C    0.88543003    0.03466993    0.70048990    -0.12080000
opls_700-373    C    0.86427012    0.01148007    0.68589997    0.05840000
opls_145-374    C    0.86790989    0.98805983    0.68016007    -0.13300000
opls_142-375    C    0.83754005    0.01101997    0.67921000    0.06800000
opls_145-376    C    0.76598987    0.95747985    0.65734996    -0.30780000
opls_145-377    C    0.78660992    0.98276988    0.66961993    0.18580000
opls_145-378    C    0.77833997    0.00151008    0.68071006    -0.17130000
opls_145-379    C    0.74992986    0.99486988    0.67944996    -0.12260000
opls_700-380    C    0.72923005    0.96941000    0.66728999    -0.05280000
opls_727-381    C    0.73752999    0.95077998    0.65603996    0.22060000
opls_700-382    C    0.64104994    0.94792989    0.66663998    0.07550000
opls_145-383    C    0.73502000    0.97610987    0.95918002    -0.13390000
opls_700-384    C    0.74173002    0.00045008    0.97502006    0.04400000
opls_145-385    C    0.76785997    0.02554001    0.96983993    -0.13440000
opls_145-386    C    0.78541994    0.02697997    0.94842009    -0.12260000
opls_700-387    C    0.77798005    0.00303997    0.93208994    0.07000000
opls_145-388    C    0.75267987    0.97756986    0.93774001    -0.12790000
opls_727-389    C    0.82631003    0.01720007    0.91302000    0.24700000
opls_700-390    C    0.79667988    0.00460993    0.90933993    -0.04210000
opls_145-391    C    0.78497000    0.99377984    0.88357003    -0.13400000
opls_145-392    C    0.80248998    0.99562001    0.86182997    -0.17350000
opls_145-393    C    0.83211003    0.00819993    0.86561007    0.18590000
opls_145-394    C    0.84374009    0.01907008    0.89124999    -0.30840000
opls_142-395    C    0.84450000    0.99712988    0.82109005    0.06950000
opls_700-396    C    0.91022002    0.00511009    0.76691009    0.05990000
opls_700-397    C    0.93336995    0.00555996    0.75044000    0.02750000
opls_145-398    C    0.95507004    0.00378009    0.76432002    -0.07310000
opls_700-399    C    0.97607001    0.00211999    0.74964006    0.04230000
opls_145-400    C    0.91687001    0.02453990    0.78836008    -0.12130000
opls_145-401    C    0.89547994    0.02252007    0.80565007    -0.13000000
opls_700-402    C    0.86701013    0.00099009    0.80175998    0.06270000
opls_145-403    C    0.88170003    0.98397990    0.76264010    -0.12920000
opls_145-404    C    0.86024997    0.98210989    0.77979992    -0.12770000
opls_145-405    C    0.67613989    0.96776993    0.97563993    -0.13340000
opls_145-406    C    0.64772999    0.94597996    0.97536004    -0.12070000
opls_700-407    C    0.63495990    0.93015997    0.99900003    0.07130000
opls_145-408    C    0.65096997    0.93691994    0.02304008    -0.12290000
opls_145-409    C    0.67937987    0.95870990    0.02336010    -0.13370000
opls_701-410    C    0.72360004    0.99966990    0.99967000    0.00240000
opls_700-411    C    0.30676002    0.66385991    0.94521994    0.03680000
opls_145-412    C    0.28340986    0.66171989    0.95931996    -0.17440000
opls_700-413    C    0.26013006    0.65967001    0.94457991    0.02760000
opls_145-414    C    0.23737001    0.67877995    0.97575991    -0.12130000
opls_700-415    C    0.23507001    0.65645998    0.95951002    0.06590000
opls_145-416    C    0.20823998    0.63234992    0.95514999    -0.11970000
opls_145-417    C    0.18376007    0.63132999    0.96551005    -0.12080000
opls_700-418    C    0.18579001    0.65451986    0.98009998    0.05840000
opls_145-419    C    0.21284992    0.67793988    0.98584009    -0.13290000
opls_142-420    C    0.15952004    0.65497996    0.98678995    0.06800000
opls_145-421    C    0.14150988    0.70851986    0.00864999    -0.30770000
opls_145-422    C    0.13684000    0.68323004    0.99638002    0.18580000
opls_145-423    C    0.10982997    0.66449006    0.98529009    -0.17130000
opls_145-424    C    0.08805994    0.67113005    0.98654999    -0.12260000
opls_700-425    C    0.09282002    0.69658993    0.99870996    -0.05280000
opls_727-426    C    0.11974997    0.71521994    0.00995999    0.22060000
opls_700-427    C    0.02612001    0.71807004    0.99935997    0.04400000
opls_145-428    C    0.09191010    0.68989006    0.70681993    -0.13390000
opls_700-429    C    0.07428001    0.66555006    0.69098009    0.04410000
opls_145-430    C    0.07531992    0.64045992    0.69616002    -0.13430000
opls_145-431    C    0.09143994    0.63901996    0.71758006    -0.12260000
opls_700-432    C    0.10794005    0.66295996    0.73391001    0.07000000
opls_145-433    C    0.10810987    0.68842985    0.72825994    -0.12790000
opls_727-434    C    0.14210992    0.64879986    0.75297995    0.30100000
opls_700-435    C    0.12506992    0.66139000    0.75666003    -0.04210000
opls_145-436    C    0.12419002    0.67221988    0.78242992    -0.13400000
opls_145-437    C    0.13986993    0.67037991    0.80416998    -0.17350000
opls_145-438    C    0.15691006    0.65780000    0.80039009    0.18590000
opls_145-439    C    0.15767008    0.64693006    0.77474996    -0.30840000
opls_142-440    C    0.18037009    0.66887005    0.84490990    0.06950000
opls_700-441    C    0.23811000    0.66089005    0.89909006    0.06100000
opls_700-442    C    0.26080995    0.66043997    0.91555996    0.02750000
opls_145-443    C    0.28429002    0.66222005    0.90167993    -0.07310000
opls_700-444    C    0.30694998    0.66387994    0.91636010    0.04850000
opls_145-445    C    0.22533007    0.64146003    0.87764008    -0.12130000
opls_145-446    C    0.20595984    0.64347986    0.86035008    -0.13000000
opls_700-447    C    0.19902011    0.66501004    0.86423997    0.06270000
opls_145-448    C    0.23072009    0.68202002    0.90336006    -0.12920000
opls_145-449    C    0.21114004    0.68389004    0.88620003    -0.12750000
opls_145-450    C    0.04136992    0.69823000    0.69036002    -0.13340000
opls_145-451    C    0.03474999    0.72001996    0.69063991    -0.12070000
opls_700-452    C    0.03779989    0.73583995    0.66699992    0.07120000
opls_145-453    C    0.04704999    0.72907999    0.64296007    -0.12290000
opls_145-454    C    0.05366993    0.70729002    0.64264006    -0.13360000
opls_701-455    C    0.33366996    0.66633003    0.37459005    -0.08860000
opls_701-456    C    0.33366996    0.66633003    0.42900997    -0.08210000
opls_700-457    C    0.35809988    0.69323989    0.94521994    0.06060000
opls_145-458    C    0.37931003    0.71659001    0.95931996    -0.17430000
opls_700-459    C    0.40053993    0.73987002    0.94457991    0.02760000
opls_145-460    C    0.44241007    0.76263005    0.97575991    -0.12120000
opls_700-461    C    0.42238994    0.76492990    0.95951002    0.06590000
opls_145-462    C    0.42511000    0.79176005    0.95514999    -0.11970000
opls_145-463    C    0.44856998    0.81623985    0.96551005    -0.12080000
opls_700-464    C    0.46973002    0.81421001    0.98009998    0.05840000
opls_145-465    C    0.46608996    0.78714991    0.98584009    -0.13300000
opls_142-466    C    0.49645992    0.84047991    0.98678995    0.06800000
opls_145-467    C    0.56801006    0.85849000    0.00864999    -0.30780000
opls_145-468    C    0.54739000    0.86316002    0.99638002    0.18580000
opls_145-469    C    0.55566008    0.89017004    0.98529009    -0.17130000
opls_145-470    C    0.58406993    0.91193997    0.98654999    -0.12260000
opls_700-471    C    0.60476997    0.90718002    0.99870996    -0.05280000
opls_727-472    C    0.59646990    0.88024991    0.00995999    0.22050000
opls_700-473    C    0.69295002    0.97387992    0.99935997    0.04400000
opls_145-474    C    0.59897995    0.90808998    0.70681993    -0.13390000
opls_700-475    C    0.59226986    0.92571989    0.69098009    0.06330000
opls_145-476    C    0.56613997    0.92467993    0.69616002    -0.13440000
opls_145-477    C    0.54857993    0.90855989    0.71758006    -0.12260000
opls_700-478    C    0.55601995    0.89205987    0.73391001    0.07000000
opls_145-479    C    0.58131997    0.89189003    0.72825994    -0.12790000
opls_727-480    C    0.50769000    0.85788989    0.75297995    0.24690000
opls_700-481    C    0.53731990    0.87492991    0.75666003    -0.04210000
opls_145-482    C    0.54903006    0.87581005    0.78242992    -0.13400000
opls_145-483    C    0.53151000    0.86012985    0.80416998    -0.17350000
opls_145-484    C    0.50188999    0.84309004    0.80039009    0.18590000
opls_145-485    C    0.49025994    0.84232989    0.77474996    -0.30840000
opls_142-486    C    0.48949998    0.81962996    0.84490990    0.06950000
opls_700-487    C    0.42378004    0.76188993    0.89909006    0.05990000
opls_700-488    C    0.40062993    0.73918999    0.91555996    0.02750000
opls_145-489    C    0.37892994    0.71570988    0.90167993    -0.07310000
opls_700-490    C    0.35793001    0.69305001    0.91636010    0.04230000
opls_145-491    C    0.41713006    0.77466995    0.87764008    -0.12130000
opls_145-492    C    0.43851993    0.79403987    0.86035008    -0.13000000
opls_700-493    C    0.46698991    0.80097991    0.86423997    0.06270000
opls_145-494    C    0.45230009    0.76928005    0.90336006    -0.12920000
opls_145-495    C    0.47374989    0.78885988    0.88620003    -0.12770000
opls_145-496    C    0.65785999    0.95862999    0.69036002    -0.13330000
opls_145-497    C    0.68626995    0.96524994    0.69063991    -0.12070000
opls_700-498    C    0.69903993    0.96219995    0.66699992    0.07120000
opls_145-499    C    0.68302998    0.95294984    0.64296007    -0.12290000
opls_145-500    C    0.65462002    0.94632988    0.64264006    -0.13370000
opls_700-501    C    0.33614001    0.64189988    0.94521994    0.04400000
opls_145-502    C    0.33827994    0.62068999    0.95931996    -0.17440000
opls_700-503    C    0.34032985    0.59945986    0.94457991    0.02760000
opls_145-504    C    0.32121994    0.55758990    0.97575991    -0.12130000
opls_700-505    C    0.34354007    0.57761001    0.95951002    0.06590000
opls_145-506    C    0.36765004    0.57488991    0.95514999    -0.11970000
opls_145-507    C    0.36866997    0.55143004    0.96551005    -0.12080000
opls_700-508    C    0.34547998    0.53027002    0.98009998    0.05840000
opls_145-509    C    0.32205985    0.53390989    0.98584009    -0.13300000
opls_142-510    C    0.34502006    0.50354002    0.98678995    0.06800000
opls_145-511    C    0.29148007    0.43199003    0.00864999    -0.30780000
opls_145-512    C    0.31676993    0.45261004    0.99638002    0.18580000
opls_145-513    C    0.33551007    0.44434000    0.98529009    -0.17130000
opls_145-514    C    0.32887007    0.41593008    0.98654999    -0.12260000
opls_700-515    C    0.30341003    0.39522994    0.99870996    -0.05280000
opls_727-516    C    0.28477996    0.40353003    0.00995999    0.22070000
opls_700-517    C    0.28192998    0.30704994    0.99935997    0.04400000
opls_145-518    C    0.31011008    0.40102006    0.70681993    -0.13390000
opls_700-519    C    0.33444996    0.40772994    0.69098009    0.05780000
opls_145-520    C    0.35953994    0.43386004    0.69616002    -0.13440000
opls_145-521    C    0.36097996    0.45142005    0.71758006    -0.12260000
opls_700-522    C    0.33704002    0.44398006    0.73391001    0.07000000
opls_145-523    C    0.31157000    0.41868001    0.72825994    -0.12780000
opls_727-524    C    0.35119999    0.49230993    0.75297995    0.25480000
opls_700-525    C    0.33861002    0.46267998    0.75666003    -0.04210000
opls_145-526    C    0.32777994    0.45096997    0.78242992    -0.13400000
opls_145-527    C    0.32961998    0.46848991    0.80416998    -0.17340000
opls_145-528    C    0.34220007    0.49811006    0.80039009    0.18600000
opls_145-529    C    0.35307000    0.50973994    0.77474996    -0.30840000
opls_142-530    C    0.33112995    0.51049988    0.84490990    0.06950000
opls_700-531    C    0.33910997    0.57621991    0.89909006    0.06100000
opls_700-532    C    0.33955995    0.59936993    0.91555996    0.02750000
opls_145-533    C    0.33778006    0.62106996    0.90167993    -0.07310000
opls_700-534    C    0.33612002    0.64206994    0.91636010    0.05770000
opls_145-535    C    0.35853988    0.58286991    0.87764008    -0.12130000
opls_145-536    C    0.35651996    0.56147995    0.86035008    -0.13000000
opls_700-537    C    0.33499000    0.53300994    0.86423997    0.06270000
opls_145-538    C    0.31797994    0.54770003    0.90336006    -0.12920000
opls_145-539    C    0.31610990    0.52624997    0.88620003    -0.12770000
opls_145-540    C    0.30176992    0.34213990    0.69036002    -0.13340000
opls_145-541    C    0.27998008    0.31372999    0.69063991    -0.12070000
opls_700-542    C    0.26416002    0.30095998    0.66699992    0.07130000
opls_145-543    C    0.27092004    0.31697006    0.64296007    -0.12290000
opls_145-544    C    0.29271007    0.34537998    0.64264006    -0.13370000
opls_700-545    C    0.69424002    0.35809990    0.05378009    0.06330000
opls_145-546    C    0.71758995    0.37931001    0.03968007    -0.17440000
opls_700-547    C    0.74086988    0.40053993    0.05441992    0.02760000
opls_145-548    C    0.76362994    0.44240989    0.02323992    -0.12130000
opls_700-549    C    0.76593006    0.42238999    0.03949001    0.06590000
opls_145-550    C    0.79276001    0.42510987    0.04385004    -0.11970000
opls_145-551    C    0.81723992    0.44856996    0.03348998    -0.12070000
opls_700-552    C    0.81520996    0.46972998    0.01890005    0.05840000
opls_145-553    C    0.78814986    0.46608990    0.01315994    -0.13300000
opls_142-554    C    0.84148004    0.49645998    0.01221008    0.06800000
opls_145-555    C    0.85949005    0.56800997    0.99035004    -0.30780000
opls_145-556    C    0.86415990    0.54738996    0.00262001    0.18580000
opls_145-557    C    0.89117008    0.55566000    0.01370994    -0.17130000
opls_145-558    C    0.91293999    0.58406992    0.01245004    -0.12260000
opls_700-559    C    0.90818009    0.60477006    0.00029007    -0.05280000
opls_727-560    C    0.88124993    0.59646997    0.98904004    0.22050000
opls_700-561    C    0.97488004    0.69295006    0.99964006    0.05770000
opls_145-562    C    0.90909002    0.59897994    0.29218010    -0.13390000
opls_700-563    C    0.92672002    0.59227006    0.30801994    0.07830000
opls_145-564    C    0.92567990    0.56613996    0.30284001    -0.13440000
opls_145-565    C    0.90955992    0.54857995    0.28141996    -0.12260000
opls_700-566    C    0.89305996    0.55601994    0.26509002    0.07000000
opls_145-567    C    0.89288998    0.58131999    0.27074009    -0.12790000
opls_727-568    C    0.85889006    0.50769007    0.24602008    0.23060000
opls_700-569    C    0.87593004    0.53732002    0.24234000    -0.04210000
opls_145-570    C    0.87680997    0.54903003    0.21656991    -0.13390000
opls_145-571    C    0.86112997    0.53150988    0.19483005    -0.17350000
opls_145-572    C    0.84409001    0.50188994    0.19860994    0.18590000
opls_145-573    C    0.84333005    0.49026006    0.22425007    -0.30840000
opls_142-574    C    0.82062996    0.48949990    0.15408992    0.06950000
opls_700-575    C    0.76288995    0.42377987    0.09990996    0.05990000
opls_700-576    C    0.74019002    0.40063007    0.08344007    0.02750000
opls_145-577    C    0.71671010    0.37893004    0.09732010    -0.07310000
opls_700-578    C    0.69405008    0.35793006    0.08263993    0.06030000
opls_145-579    C    0.77566986    0.41712987    0.12135995    -0.12130000
opls_145-580    C    0.79504000    0.43852005    0.13864995    -0.13000000
opls_700-581    C    0.80198007    0.46699006    0.13476006    0.06270000
opls_145-582    C    0.77027990    0.45229997    0.09563997    -0.12920000
opls_145-583    C    0.78985993    0.47375003    0.11280000    -0.12760000
opls_145-584    C    0.95962991    0.65785988    0.30864001    -0.13340000
opls_145-585    C    0.96625009    0.68627001    0.30835992    -0.12070000
opls_700-586    C    0.96320004    0.69904002    0.33199990    0.07090000
opls_145-587    C    0.95394998    0.68302994    0.35603996    -0.12290000
opls_145-588    C    0.94733009    0.65462002    0.35635997    -0.13370000
opls_701-589    C    0.66732994    0.33365996    0.62440998    -0.08310000
opls_701-590    C    0.66732994    0.33365996    0.56999006    -0.07550000
opls_700-591    C    0.64290001    0.33613988    0.05378009    0.04400000
opls_145-592    C    0.62168987    0.33827990    0.03968007    -0.17440000
opls_700-593    C    0.60046004    0.34032999    0.05441992    0.02760000
opls_145-594    C    0.55859006    0.32122005    0.02323992    -0.12130000
opls_700-595    C    0.57861002    0.34354002    0.03949001    0.06600000
opls_145-596    C    0.57589005    0.36765008    0.04385004    -0.11960000
opls_145-597    C    0.55243007    0.36867001    0.03348998    -0.12080000
opls_700-598    C    0.53127005    0.34547993    0.01890005    0.05840000
opls_145-599    C    0.53490993    0.32205991    0.01315994    -0.13300000
opls_142-600    C    0.50454008    0.34502004    0.01221008    0.06800000
opls_145-601    C    0.43298991    0.29147992    0.99035004    -0.30780000
opls_145-602    C    0.45360996    0.31676996    0.00262001    0.18580000
opls_145-603    C    0.44533991    0.33550994    0.01370994    -0.17130000
opls_145-604    C    0.41692990    0.32886995    0.01245004    -0.12260000
opls_700-605    C    0.39623009    0.30341007    0.00029007    -0.05280000
opls_727-606    C    0.40453003    0.28478006    0.98904004    0.22060000
opls_700-607    C    0.30804998    0.28192996    0.99964006    0.04410000
opls_145-608    C    0.40202004    0.31010994    0.29218010    -0.13390000
opls_700-609    C    0.40872995    0.33444994    0.30801994    0.07050000
opls_145-610    C    0.43486000    0.35954008    0.30284001    -0.13440000
opls_145-611    C    0.45241998    0.36098004    0.28141996    -0.12260000
opls_700-612    C    0.44498009    0.33704004    0.26509002    0.07000000
opls_145-613    C    0.41967991    0.31156993    0.27074009    -0.12790000
opls_727-614    C    0.49330996    0.35119993    0.24602008    0.22670000
opls_700-615    C    0.46367992    0.33861000    0.24234000    -0.04210000
opls_145-616    C    0.45197004    0.32777991    0.21656991    -0.13400000
opls_145-617    C    0.46948991    0.32961987    0.19483005    -0.17340000
opls_145-618    C    0.49911006    0.34220000    0.19860994    0.18590000
opls_145-619    C    0.51074002    0.35306994    0.22425007    -0.30830000
opls_142-620    C    0.51150004    0.33112995    0.15408992    0.06950000
opls_700-621    C    0.57721995    0.33910995    0.09990996    0.06100000
opls_700-622    C    0.60036999    0.33956003    0.08344007    0.02750000
opls_145-623    C    0.62206997    0.33777995    0.09732010    -0.07300000
opls_700-624    C    0.64307004    0.33612006    0.08263993    0.04240000
opls_145-625    C    0.58387004    0.35853997    0.12135995    -0.12130000
opls_145-626    C    0.56247987    0.35651993    0.13864995    -0.12980000
opls_700-627    C    0.53401006    0.33498996    0.13476006    0.06270000
opls_145-628    C    0.54870007    0.31797998    0.09563997    -0.12910000
opls_145-629    C    0.52725000    0.31610996    0.11280000    -0.12770000
opls_145-630    C    0.34313992    0.30177000    0.30864001    -0.13340000
opls_145-631    C    0.31473002    0.27998004    0.30835992    -0.12070000
opls_700-632    C    0.30195993    0.26416005    0.33199990    0.07090000
opls_145-633    C    0.31797000    0.27092001    0.35603996    -0.12290000
opls_145-634    C    0.34637990    0.29270998    0.35635997    -0.13370000
opls_700-635    C    0.66485989    0.30675990    0.05378009    0.03680000
opls_145-636    C    0.66272002    0.28340999    0.03968007    -0.17440000
opls_700-637    C    0.66066991    0.26012998    0.05441992    0.02760000
opls_145-638    C    0.67978002    0.23736995    0.02323992    -0.12130000
opls_700-639    C    0.65745994    0.23506989    0.03949001    0.06590000
opls_145-640    C    0.63334995    0.20823995    0.04385004    -0.11970000
opls_145-641    C    0.63233003    0.18375993    0.03348998    -0.12080000
opls_700-642    C    0.65552001    0.18578999    0.01890005    0.05850000
opls_145-643    C    0.67894004    0.21285009    0.01315994    -0.13300000
opls_142-644    C    0.65598001    0.15952009    0.01221008    0.06800000
opls_145-645    C    0.70952006    0.14151000    0.99035004    -0.30780000
opls_145-646    C    0.68422998    0.13683998    0.00262001    0.18580000
opls_145-647    C    0.66549004    0.10982996    0.01370994    -0.17130000
opls_145-648    C    0.67212995    0.08806003    0.01245004    -0.12260000
opls_700-649    C    0.69758995    0.09281998    0.00029007    -0.05270000
opls_727-650    C    0.71621999    0.11975009    0.98904004    0.22060000
opls_700-651    C    0.71907011    0.02612008    0.99964006    0.07540000
opls_145-652    C    0.69088996    0.09191002    0.29218010    -0.13380000
opls_700-653    C    0.66654987    0.07427990    0.30801994    0.07540000
opls_145-654    C    0.64146004    0.07532007    0.30284001    -0.13440000
opls_145-655    C    0.64001994    0.09143990    0.28141996    -0.12260000
opls_700-656    C    0.66395997    0.10793991    0.26509002    0.07000000
opls_145-657    C    0.68942994    0.10810997    0.27074009    -0.12790000
opls_727-658    C    0.64980001    0.14210990    0.24602008    0.23050000
opls_700-659    C    0.66238998    0.12507009    0.24234000    -0.04210000
opls_145-660    C    0.67322001    0.12418995    0.21656991    -0.13390000
opls_145-661    C    0.67138004    0.13986993    0.19483005    -0.17350000
opls_145-662    C    0.65879995    0.15690996    0.19860994    0.18590000
opls_145-663    C    0.64792994    0.15766990    0.22425007    -0.30840000
opls_142-664    C    0.66987002    0.18037004    0.15408992    0.06950000
opls_700-665    C    0.66189011    0.23811007    0.09990996    0.06000000
opls_700-666    C    0.66143994    0.26081001    0.08344007    0.02750000
opls_145-667    C    0.66321996    0.28428991    0.09732010    -0.07310000
opls_700-668    C    0.66488000    0.30694999    0.08263993    0.05510000
opls_145-669    C    0.64246011    0.22533005    0.12135995    -0.12130000
opls_145-670    C    0.64447996    0.20595992    0.13864995    -0.12990000
opls_700-671    C    0.66601000    0.19902009    0.13476006    0.06270000
opls_145-672    C    0.68302005    0.23071995    0.09563997    -0.12920000
opls_145-673    C    0.68488990    0.21113991    0.11280000    -0.12770000
opls_145-674    C    0.69923000    0.04137001    0.30864001    -0.13340000
opls_145-675    C    0.72102001    0.03475006    0.30835992    -0.12070000
opls_700-676    C    0.73683997    0.03780005    0.33199990    0.07090000
opls_145-677    C    0.73008003    0.04704995    0.35603996    -0.12290000
opls_145-678    C    0.70829003    0.05366990    0.35635997    -0.13370000
opls_700-679    C    0.00314004    0.97589996    0.27822001    0.03680000
opls_145-680    C    0.00527987    0.95468985    0.29232004    -0.17440000
opls_700-681    C    0.00732988    0.93345993    0.27757998    0.02760000
opls_145-682    C    0.98821998    0.89158997    0.30875999    -0.12130000
opls_700-683    C    0.01054000    0.91160987    0.29251009    0.06590000
opls_145-684    C    0.03465007    0.90888999    0.28815006    -0.11970000
opls_145-685    C    0.03566990    0.88542990    0.29850992    -0.12080000
opls_700-686    C    0.01247991    0.86426988    0.31310005    0.05840000
opls_145-687    C    0.98905989    0.86790996    0.31883996    -0.13300000
opls_142-688    C    0.01201999    0.83753989    0.31979002    0.06800000
opls_145-689    C    0.95848000    0.76598989    0.34165006    -0.30780000
opls_145-690    C    0.98376986    0.78660990    0.32938010    0.18580000
opls_145-691    C    0.00251001    0.77833986    0.31828997    -0.17130000
opls_145-692    C    0.99587000    0.74992994    0.31955006    -0.12260000
opls_700-693    C    0.97041007    0.72923002    0.33171003    -0.05280000
opls_727-694    C    0.95177989    0.73752989    0.34296007    0.22050000
opls_700-695    C    0.94893002    0.64105001    0.33236005    0.06350000
opls_145-696    C    0.97711001    0.73501992    0.03982001    -0.13390000
opls_700-697    C    0.00144999    0.74173001    0.02397996    0.04400000
opls_145-698    C    0.02653987    0.76785990    0.02916010    -0.13440000
opls_145-699    C    0.02797990    0.78541991    0.05057994    -0.12260000
opls_700-700    C    0.00403995    0.77797992    0.06691009    0.07000000
opls_145-701    C    0.97856993    0.75267987    0.06126002    -0.12780000
opls_727-702    C    0.01820003    0.82631001    0.08598003    0.30090000
opls_700-703    C    0.00561005    0.79668005    0.08965990    -0.04210000
opls_145-704    C    0.99477997    0.78497004    0.11542999    -0.13400000
opls_145-705    C    0.99662002    0.80248998    0.13717005    -0.17350000
opls_145-706    C    0.00920000    0.83210992    0.13338996    0.18590000
opls_145-707    C    0.02007003    0.84374002    0.10775003    -0.30840000
opls_142-708    C    0.99812999    0.84449996    0.17790998    0.06950000
opls_700-709    C    0.00611001    0.91021999    0.23208994    0.05990000
opls_700-710    C    0.00655998    0.93337000    0.24856003    0.02750000
opls_145-711    C    0.00478010    0.95507004    0.23468001    -0.07310000
opls_700-712    C    0.00312006    0.97607001    0.24935997    0.04920000
opls_145-713    C    0.02553992    0.91686999    0.21063995    -0.12130000
opls_145-714    C    0.02351999    0.89548002    0.19334996    -0.13000000
opls_700-715    C    0.00199004    0.86701001    0.19724005    0.06270000
opls_145-716    C    0.98497987    0.88169989    0.23635993    -0.12910000
opls_145-717    C    0.98310994    0.86025005    0.21919990    -0.12770000
opls_145-718    C    0.96876995    0.67613998    0.02336010    -0.13340000
opls_145-719    C    0.94698011    0.64773006    0.02363999    -0.12070000
opls_700-720    C    0.93116006    0.63496006    0.00000000    0.07120000
opls_145-721    C    0.93791998    0.65096992    0.97595994    -0.12290000
opls_145-722    C    0.95971011    0.67938006    0.97563993    -0.13370000
opls_701-723    C    0.00066991    0.00033991    0.70758992    -0.08860000
opls_701-724    C    0.00066991    0.00033991    0.76201005    -0.08210000
opls_700-725    C    0.97376006    0.99785998    0.27822001    0.06060000
opls_145-726    C    0.95040990    0.99571996    0.29232004    -0.17440000
opls_700-727    C    0.92712999    0.99366987    0.27757998    0.02760000
opls_145-728    C    0.90437004    0.01278002    0.30875999    -0.12130000
opls_700-729    C    0.90206994    0.99045984    0.29251009    0.06590000
opls_145-730    C    0.87524001    0.96635000    0.28815006    -0.11970000
opls_145-731    C    0.85076000    0.96532985    0.29850992    -0.12080000
opls_700-732    C    0.85279005    0.98851993    0.31310005    0.05840000
opls_145-733    C    0.87984995    0.01193995    0.31883996    -0.13300000
opls_142-734    C    0.82652008    0.98898003    0.31979002    0.06800000
opls_145-735    C    0.80850992    0.04251994    0.34165006    -0.30780000
opls_145-736    C    0.80383994    0.01722990    0.32938010    0.18580000
opls_145-737    C    0.77682990    0.99848992    0.31828997    -0.17130000
opls_145-738    C    0.75505987    0.00512991    0.31955006    -0.12260000
opls_700-739    C    0.75982006    0.03059000    0.33171003    -0.05280000
opls_727-740    C    0.78675001    0.04922002    0.34296007    0.22050000
opls_700-741    C    0.69311994    0.05206990    0.33236005    0.07620000
opls_145-742    C    0.75891003    0.02388992    0.03982001    -0.13390000
opls_700-743    C    0.74127994    0.99954992    0.02397996    0.06330000
opls_145-744    C    0.74231996    0.97445999    0.02916010    -0.13430000
opls_145-745    C    0.75843997    0.97302003    0.05057994    -0.12250000
opls_700-746    C    0.77494008    0.99696003    0.06691009    0.07000000
opls_145-747    C    0.77510991    0.02242993    0.06126002    -0.12780000
opls_727-748    C    0.80910996    0.98279993    0.08598003    0.24690000
opls_700-749    C    0.79206985    0.99538986    0.08965990    -0.04210000
opls_145-750    C    0.79119006    0.00621995    0.11542999    -0.13400000
opls_145-751    C    0.80686996    0.00437999    0.13717005    -0.17350000
opls_145-752    C    0.82390999    0.99179986    0.13338996    0.18590000
opls_145-753    C    0.82467001    0.98092992    0.10775003    -0.30830000
opls_142-754    C    0.84737002    0.00286991    0.17790998    0.06950000
opls_700-755    C    0.90510993    0.99488991    0.23208994    0.05990000
opls_700-756    C    0.92780999    0.99444004    0.24856003    0.02750000
opls_145-757    C    0.95128995    0.99621991    0.23468001    -0.07310000
opls_700-758    C    0.97395002    0.99788001    0.24935997    0.04240000
opls_145-759    C    0.89233000    0.97545989    0.21063995    -0.12130000
opls_145-760    C    0.87295987    0.97747993    0.19334996    -0.13000000
opls_700-761    C    0.86602004    0.99900991    0.19724005    0.06270000
opls_145-762    C    0.89772013    0.01602010    0.23635993    -0.12920000
opls_145-763    C    0.87813997    0.01788990    0.21919990    -0.12770000
opls_145-764    C    0.70836996    0.03223007    0.02336010    -0.13330000
opls_145-765    C    0.70175003    0.05402004    0.02363999    -0.12070000
opls_700-766    C    0.70479992    0.06984003    0.00000000    0.07100000
opls_145-767    C    0.71405003    0.06308006    0.97595994    -0.12290000
opls_145-768    C    0.72066996    0.04129010    0.97563993    -0.13370000
opls_700-769    C    0.02509992    0.02723996    0.27822001    0.04400000
opls_145-770    C    0.04631006    0.05059008    0.29232004    -0.17440000
opls_700-771    C    0.06753996    0.07387009    0.27757998    0.02760000
opls_145-772    C    0.10941000    0.09662991    0.30875999    -0.12130000
opls_700-773    C    0.08938998    0.09892997    0.29251009    0.06590000
opls_145-774    C    0.09210993    0.12575991    0.28815006    -0.11970000
opls_145-775    C    0.11557002    0.15023993    0.29850992    -0.12080000
opls_700-776    C    0.13673006    0.14821008    0.31310005    0.05840000
opls_145-777    C    0.13308999    0.12114998    0.31883996    -0.13300000
opls_142-778    C    0.16345995    0.17447998    0.31979002    0.06800000
opls_145-779    C    0.23501010    0.19249007    0.34165006    -0.30770000
opls_145-780    C    0.21438993    0.19715988    0.32938010    0.18580000
opls_145-781    C    0.22266001    0.22416990    0.31828997    -0.17130000
opls_145-782    C    0.25106996    0.24594005    0.31955006    -0.12260000
opls_700-783    C    0.27176990    0.24117988    0.33171003    -0.05270000
opls_727-784    C    0.26346994    0.21424999    0.34296007    0.22050000
opls_700-785    C    0.35995006    0.30787999    0.33236005    0.05780000
opls_145-786    C    0.26597998    0.24209006    0.03982001    -0.13390000
opls_700-787    C    0.25926990    0.25971996    0.02397996    0.05780000
opls_145-788    C    0.23314001    0.25868000    0.02916010    -0.13440000
opls_145-789    C    0.21557997    0.24255996    0.05057994    -0.12260000
opls_700-790    C    0.22301999    0.22605995    0.06691009    0.07000000
opls_145-791    C    0.24831990    0.22588989    0.06126002    -0.12790000
opls_727-792    C    0.17469004    0.19188996    0.08598003    0.25480000
opls_700-793    C    0.20431993    0.20892999    0.08965990    -0.04210000
opls_145-794    C    0.21602999    0.20980991    0.11542999    -0.13400000
opls_145-795    C    0.19851004    0.19412993    0.13717005    -0.17350000
opls_145-796    C    0.16888992    0.17708990    0.13338996    0.18590000
opls_145-797    C    0.15725997    0.17632996    0.10775003    -0.30840000
opls_142-798    C    0.15650002    0.15363003    0.17790998    0.06950000
opls_700-799    C    0.09078007    0.09589000    0.23208994    0.05990000
opls_700-800    C    0.06762997    0.07319007    0.24856003    0.02750000
opls_145-801    C    0.04592998    0.04970995    0.23468001    -0.07310000
opls_700-802    C    0.02493005    0.02705008    0.24935997    0.05770000
opls_145-803    C    0.08413010    0.10867002    0.21063995    -0.12130000
opls_145-804    C    0.10551997    0.12803994    0.19334996    -0.13000000
opls_700-805    C    0.13398994    0.13497998    0.19724005    0.06270000
opls_145-806    C    0.11930002    0.10327991    0.23635993    -0.12920000
opls_145-807    C    0.14074993    0.12285995    0.21919990    -0.12770000
opls_145-808    C    0.32486003    0.29263006    0.02336010    -0.13330000
opls_145-809    C    0.35326999    0.29925001    0.02363999    -0.12070000
opls_700-810    C    0.36603996    0.29620003    0.00000000    0.07100000
opls_145-811    C    0.35003001    0.28694991    0.97595994    -0.12280000
opls_145-812    C    0.32162006    0.28032996    0.97563993    -0.13360000
opls_750-813    N    0.34576994    0.49368000    0.33967008    -0.36080000
opls_750-814    N    0.32234001    0.50660003    0.51117996    -0.36090000
opls_750-815    N    0.50632001    0.85208997    0.33967008    -0.36070000
opls_750-816    N    0.49340002    0.81573990    0.51117996    -0.36090000
opls_750-817    N    0.14791005    0.65423003    0.33967008    -0.36100000
opls_750-818    N    0.18425986    0.67765986    0.51117996    -0.36090000
opls_750-819    N    0.49368001    0.34576997    0.66032992    -0.36100000
opls_750-820    N    0.50659990    0.32233993    0.48882004    -0.36090000
opls_750-821    N    0.85208995    0.50632000    0.66032992    -0.36100000
opls_750-822    N    0.81573998    0.49339997    0.48882004    -0.36080000
opls_750-823    N    0.65423004    0.14791003    0.66032992    -0.36090000
opls_750-824    N    0.67766001    0.18425988    0.48882004    -0.36100000
opls_750-825    N    0.01277007    0.82667996    0.67266996    -0.36100000
opls_750-826    N    0.98933995    0.83959999    0.84418004    -0.36100000
opls_750-827    N    0.17331995    0.18508993    0.67266996    -0.36100000
opls_750-828    N    0.16040007    0.14874008    0.84418004    -0.36090000
opls_750-829    N    0.81490999    0.98723000    0.67266996    -0.36080000
opls_750-830    N    0.85126010    0.01066003    0.84418004    -0.36100000
opls_750-831    N    0.16067996    0.67876993    0.99332999    -0.36100000
opls_750-832    N    0.17360003    0.65533989    0.82181991    -0.36090000
opls_750-833    N    0.51909007    0.83931997    0.99332999    -0.36090000
opls_750-834    N    0.48273993    0.82639994    0.82181991    -0.36080000
opls_750-835    N    0.32122998    0.48090999    0.99332999    -0.36080000
opls_750-836    N    0.34466006    0.51726006    0.82181991    -0.36090000
opls_750-837    N    0.84031999    0.51909001    0.00567004    -0.36100000
opls_750-838    N    0.82740001    0.48273994    0.17717991    -0.36100000
opls_750-839    N    0.48191003    0.32123007    0.00567004    -0.36100000
opls_750-840    N    0.51826003    0.34465989    0.17717991    -0.36100000
opls_750-841    N    0.67977011    0.16068003    0.00567004    -0.36100000
opls_750-842    N    0.65633999    0.17360006    0.17717991    -0.36100000
opls_750-843    N    0.98822991    0.81490985    0.32633007    -0.36100000
opls_750-844    N    0.01165999    0.85125992    0.15481999    -0.36100000
opls_750-845    N    0.82767999    0.01277000    0.32633007    -0.36090000
opls_750-846    N    0.84060006    0.98933997    0.15481999    -0.36100000
opls_750-847    N    0.18609011    0.17332004    0.32633007    -0.36090000
opls_750-848    N    0.14973996    0.16040001    0.15481999    -0.36090000
opls_719-849    F    0.40744000    0.45844000    0.31186990    -0.14940000
opls_719-850    F    0.50469998    0.36071004    0.27146995    -0.16160000
opls_719-851    F    0.54156003    0.94899990    0.31186990    -0.14940000
opls_719-852    F    0.63928998    0.14398993    0.27146995    -0.16040000
opls_719-853    F    0.05099987    0.59255988    0.31186990    -0.14930000
opls_719-854    F    0.85601003    0.49530003    0.27146995    -0.15830000
opls_719-855    F    0.45843988    0.40743990    0.68813010    -0.14940000
opls_719-856    F    0.36071000    0.50469997    0.72853005    -0.09820000
opls_719-857    F    0.94899999    0.54156000    0.68813010    -0.14940000
opls_719-858    F    0.14398995    0.63928996    0.72853005    -0.07940000
opls_719-859    F    0.59256013    0.05100010    0.68813010    -0.14930000
opls_719-860    F    0.49529995    0.85600986    0.72853005    -0.10800000
opls_719-861    F    0.07443994    0.79143997    0.64486998    -0.14940000
opls_719-862    F    0.17169993    0.69371000    0.60447003    -0.09820000
opls_719-863    F    0.20856008    0.28200008    0.64486998    -0.14940000
opls_719-864    F    0.30628993    0.47698989    0.60447003    -0.07930000
opls_719-865    F    0.71800000    0.92555985    0.64486998    -0.14940000
opls_719-866    F    0.52300998    0.82830000    0.60447003    -0.10800000
opls_719-867    F    0.12544001    0.74043987    0.02112997    -0.14940000
opls_719-868    F    0.02770994    0.83769993    0.06152992    -0.07940000
opls_719-869    F    0.61599994    0.87455996    0.02112997    -0.14940000
opls_719-870    F    0.81098989    0.97228993    0.06152992    -0.10800000
opls_719-871    F    0.25956007    0.38400006    0.02112997    -0.14940000
opls_719-872    F    0.16230000    0.18901004    0.06152992    -0.09820000
opls_719-873    F    0.87556001    0.61599994    0.97787005    -0.14930000
opls_719-874    F    0.97328996    0.81098996    0.93746990    -0.09810000
opls_719-875    F    0.38500003    0.25955992    0.97787005    -0.14940000
opls_719-876    F    0.19001001    0.16230007    0.93746990    -0.07940000
opls_719-877    F    0.74143998    0.12544004    0.97787005    -0.14940000
opls_719-878    F    0.83869996    0.02771007    0.93746990    -0.10790000
opls_719-879    F    0.92656000    0.71799992    0.35413005    -0.14940000
opls_719-880    F    0.82929993    0.52300990    0.39453000    -0.16160000
opls_719-881    F    0.79244004    0.07443994    0.35413005    -0.14940000
opls_719-882    F    0.69470998    0.17170000    0.39453000    -0.16040000
opls_719-883    F    0.28299997    0.20856003    0.35413005    -0.14940000
opls_719-884    F    0.47798993    0.30629000    0.39453000    -0.15850000
opls_146-885    H    0.32837993    0.61619003    0.35162004    0.10990000
opls_146-886    H    0.36453989    0.59096989    0.35373996    0.11170000
opls_146-887    H    0.28191007    0.53919004    0.39029993    0.11180000
opls_146-888    H    0.28005996    0.49613989    0.37209002    0.11230000
opls_146-889    H    0.36302993    0.54799987    0.33577001    0.11420000
opls_144-890    H    0.30263002    0.47229003    0.34897008    0.11570000
opls_146-891    H    0.39038988    0.49534990    0.31623991    0.11410000
opls_146-892    H    0.31218004    0.43850002    0.35813992    0.11690000
opls_146-893    H    0.32342009    0.40049006    0.35520010    0.11090000
opls_146-894    H    0.37731006    0.42679001    0.63052999    0.11270000
opls_146-895    H    0.28868996    0.39624007    0.64932004    0.11260000
opls_146-896    H    0.28606000    0.42383997    0.61150996    0.11260000
opls_146-897    H    0.37442993    0.45430999    0.59289000    0.10970000
opls_146-898    H    0.34869004    0.44395001    0.54715001    0.11530000
opls_146-899    H    0.34539993    0.47112988    0.50919998    0.11490000
opls_146-900    H    0.30423996    0.50374994    0.56140994    0.11530000
opls_144-901    H    0.35152000    0.50715006    0.48345005    0.11810000
opls_146-902    H    0.32998991    0.61823990    0.45337004    0.11170000
opls_146-903    H    0.29202003    0.56374997    0.45899995    0.11230000
opls_146-904    H    0.29548995    0.52980992    0.48931992    0.11260000
opls_146-905    H    0.36460004    0.57376002    0.41356999    0.11440000
opls_146-906    H    0.36769995    0.53917000    0.44344997    0.11110000
opls_146-907    H    0.35300008    0.37110006    0.62419996    0.11300000
opls_146-908    H    0.39154988    0.36023992    0.62360006    0.11110000
opls_146-909    H    0.40718994    0.38142999    0.70883006    0.11090000
opls_146-910    H    0.36896996    0.39226989    0.70974998    0.11730000
opls_702-911    H    0.33332998    0.66666993    0.98105004    0.07820000
opls_702-912    H    0.33332998    0.66666993    0.88133991    0.09170000
opls_146-913    H    0.38380995    0.71218999    0.35162004    0.10990000
opls_146-914    H    0.40903003    0.77356989    0.35373996    0.11180000
opls_146-915    H    0.46080999    0.74271990    0.39029993    0.11170000
opls_146-916    H    0.50385991    0.78391985    0.37209002    0.11250000
opls_146-917    H    0.45200003    0.81503004    0.33577001    0.11410000
opls_144-918    H    0.52770995    0.83033986    0.34897008    0.11570000
opls_146-919    H    0.50465002    0.89503996    0.31623991    0.11420000
opls_146-920    H    0.56150002    0.87368004    0.35813992    0.11680000
opls_146-921    H    0.59950987    0.92292990    0.35520010    0.11090000
opls_146-922    H    0.57320995    0.95051999    0.63052999    0.11270000
opls_146-923    H    0.60375989    0.89244986    0.64932004    0.11260000
opls_146-924    H    0.57615994    0.86222001    0.61150996    0.11260000
opls_146-925    H    0.54568985    0.92011987    0.59289000    0.10970000
opls_146-926    H    0.55605002    0.90473994    0.54715001    0.11550000
opls_146-927    H    0.52886999    0.87426992    0.50919998    0.11490000
opls_146-928    H    0.49624990    0.80048998    0.56140994    0.11530000
opls_144-929    H    0.49284999    0.84436996    0.48345005    0.11810000
opls_146-930    H    0.38176005    0.71174993    0.45337004    0.11170000
opls_146-931    H    0.43625005    0.72826997    0.45899995    0.11230000
opls_146-932    H    0.47018999    0.76568003    0.48931992    0.11260000
opls_146-933    H    0.42623986    0.79083986    0.41356999    0.11440000
opls_146-934    H    0.46082992    0.82852994    0.44344997    0.11110000
opls_146-935    H    0.62890005    0.98189998    0.62419996    0.11300000
opls_146-936    H    0.63976009    0.03131009    0.62360006    0.11170000
opls_146-937    H    0.61857001    0.02575993    0.70883006    0.11090000
opls_146-938    H    0.60773002    0.97669996    0.70974998    0.11730000
opls_146-939    H    0.28780993    0.67161998    0.35162004    0.10990000
opls_146-940    H    0.22642997    0.63546001    0.35373996    0.11170000
opls_146-941    H    0.25728002    0.71808985    0.39029993    0.11180000
opls_146-942    H    0.21608003    0.71994005    0.37209002    0.11240000
opls_146-943    H    0.18496994    0.63696987    0.33577001    0.11410000
opls_144-944    H    0.16965992    0.69736990    0.34897008    0.11580000
opls_146-945    H    0.10495999    0.60960993    0.31623991    0.11410000
opls_146-946    H    0.12631994    0.68781994    0.35813992    0.11680000
opls_146-947    H    0.07707003    0.67658004    0.35520010    0.11090000
opls_146-948    H    0.04947999    0.62269000    0.63052999    0.11270000
opls_146-949    H    0.10754986    0.71130986    0.64932004    0.11260000
opls_146-950    H    0.13778007    0.71394002    0.61150996    0.11260000
opls_146-951    H    0.07987992    0.62556993    0.59289000    0.10970000
opls_146-952    H    0.09525994    0.65131004    0.54715001    0.11540000
opls_146-953    H    0.12572998    0.65459999    0.50919998    0.11490000
opls_146-954    H    0.19951003    0.69575988    0.56140994    0.11530000
opls_144-955    H    0.15563001    0.64847998    0.48345005    0.11810000
opls_146-956    H    0.28824993    0.67000996    0.45337004    0.11170000
opls_146-957    H    0.27173000    0.70797985    0.45899995    0.11240000
opls_146-958    H    0.23432006    0.70451004    0.48931992    0.11260000
opls_146-959    H    0.20916000    0.63539991    0.41356999    0.11440000
opls_146-960    H    0.17146995    0.63230006    0.44344997    0.11110000
opls_146-961    H    0.01810005    0.64699996    0.62419996    0.11300000
opls_146-962    H    0.96869003    0.60844999    0.62360006    0.11170000
opls_146-963    H    0.97423994    0.59280986    0.70883006    0.11090000
opls_146-964    H    0.02329991    0.63102994    0.70974998    0.11750000
opls_146-965    H    0.61618995    0.32838002    0.64837996    0.10990000
opls_146-966    H    0.59096997    0.36453999    0.64626004    0.11170000
opls_146-967    H    0.53919006    0.28190993    0.60970007    0.11170000
opls_146-968    H    0.49613998    0.28005995    0.62790998    0.11230000
opls_146-969    H    0.54799996    0.36302992    0.66422999    0.11410000
opls_144-970    H    0.47228992    0.30262989    0.65102992    0.11570000
opls_146-971    H    0.49535006    0.39039007    0.68376009    0.11410000
opls_146-972    H    0.43850000    0.31218006    0.64186008    0.11690000
opls_146-973    H    0.40048999    0.32341996    0.64479990    0.11090000
opls_146-974    H    0.42678999    0.37731000    0.36947001    0.11270000
opls_146-975    H    0.39623989    0.28868993    0.35067996    0.11260000
opls_146-976    H    0.42384004    0.28605998    0.38849004    0.11260000
opls_146-977    H    0.45431000    0.37443007    0.40711000    0.10970000
opls_146-978    H    0.44394990    0.34868996    0.45284999    0.11550000
opls_146-979    H    0.47112999    0.34540001    0.49080002    0.11490000
opls_146-980    H    0.50375005    0.30423991    0.43859006    0.11530000
opls_144-981    H    0.50715003    0.35152002    0.51654995    0.11810000
opls_146-982    H    0.61823998    0.32999004    0.54662996    0.11170000
opls_146-983    H    0.56375004    0.29201994    0.54100005    0.11230000
opls_146-984    H    0.52981001    0.29548996    0.51068008    0.11260000
opls_146-985    H    0.57375998    0.36459988    0.58643001    0.11440000
opls_146-986    H    0.53916989    0.36769994    0.55655003    0.11110000
opls_146-987    H    0.37110010    0.35300004    0.37580004    0.11300000
opls_146-988    H    0.36024004    0.39155001    0.37639994    0.11170000
opls_146-989    H    0.38142997    0.40718993    0.29116994    0.11090000
opls_146-990    H    0.39226997    0.36897006    0.29025002    0.11730000
opls_702-991    H    0.66667002    0.33333007    0.01894996    0.07820000
opls_702-992    H    0.66667002    0.33333007    0.11866009    0.09170000
opls_146-993    H    0.71218990    0.38380997    0.64837996    0.10990000
opls_146-994    H    0.77356989    0.40902989    0.64626004    0.11170000
opls_146-995    H    0.74272003    0.46080996    0.60970007    0.11170000
opls_146-996    H    0.78391996    0.50385990    0.62790998    0.11230000
opls_146-997    H    0.81502995    0.45199991    0.66422999    0.11410000
opls_144-998    H    0.83033999    0.52770997    0.65102992    0.11570000
opls_146-999    H    0.89503987    0.50464989    0.68376009    0.11410000
opls_146-1000    H    0.87368002    0.56149998    0.64186008    0.11680000
opls_146-1001    H    0.92293003    0.59950994    0.64479990    0.11090000
opls_146-1002    H    0.95052006    0.57320999    0.36947001    0.11270000
opls_146-1003    H    0.89244989    0.60375993    0.35067996    0.11260000
opls_146-1004    H    0.86222003    0.57616003    0.38849004    0.11260000
opls_146-1005    H    0.92011994    0.54569001    0.40711000    0.10970000
opls_146-1006    H    0.90474003    0.55604999    0.45284999    0.11530000
opls_146-1007    H    0.87426994    0.52886991    0.49080002    0.11490000
opls_146-1008    H    0.80049003    0.49625006    0.43859006    0.11530000
opls_144-1009    H    0.84436994    0.49284994    0.51654995    0.11810000
opls_146-1010    H    0.71174990    0.38175988    0.54662996    0.11170000
opls_146-1011    H    0.72827006    0.43625003    0.54100005    0.11230000
opls_146-1012    H    0.76568003    0.47019008    0.51068008    0.11260000
opls_146-1013    H    0.79084002    0.42623998    0.58643001    0.11440000
opls_146-1014    H    0.82852994    0.46083000    0.55655003    0.11110000
opls_146-1015    H    0.98190001    0.62889994    0.37580004    0.11300000
opls_146-1016    H    0.03130985    0.63975986    0.37639994    0.11090000
opls_146-1017    H    0.02575995    0.61857001    0.29116994    0.11090000
opls_146-1018    H    0.97669997    0.60772990    0.29025002    0.11730000
opls_146-1019    H    0.67161996    0.28781001    0.64837996    0.10990000
opls_146-1020    H    0.63546004    0.22642990    0.64626004    0.11170000
opls_146-1021    H    0.71808999    0.25727989    0.60970007    0.11170000
opls_146-1022    H    0.71993995    0.21607994    0.62790998    0.11230000
opls_146-1023    H    0.63696998    0.18496996    0.66422999    0.11410000
opls_144-1024    H    0.69736999    0.16965993    0.65102992    0.11570000
opls_146-1025    H    0.60961006    0.10496004    0.68376009    0.11410000
opls_146-1026    H    0.68781998    0.12631996    0.64186008    0.11680000
opls_146-1027    H    0.67657987    0.07706989    0.64479990    0.11090000
opls_146-1028    H    0.62268996    0.04948001    0.36947001    0.11270000
opls_146-1029    H    0.71130992    0.10754993    0.35067996    0.11260000
opls_146-1030    H    0.71393993    0.13777999    0.38849004    0.11270000
opls_146-1031    H    0.62556988    0.07987992    0.40711000    0.10970000
opls_146-1032    H    0.65131007    0.09526006    0.45284999    0.11530000
opls_146-1033    H    0.65460007    0.12573008    0.49080002    0.11490000
opls_146-1034    H    0.69575993    0.19951002    0.43859006    0.11530000
opls_144-1035    H    0.64848003    0.15563004    0.51654995    0.11820000
opls_146-1036    H    0.67001012    0.28825007    0.54662996    0.11170000
opls_146-1037    H    0.70798008    0.27173003    0.54100005    0.11230000
opls_146-1038    H    0.70450996    0.23431997    0.51068008    0.11260000
opls_146-1039    H    0.63539989    0.20915993    0.58643001    0.11450000
opls_146-1040    H    0.63229998    0.17147006    0.55655003    0.11110000
opls_146-1041    H    0.64700007    0.01810002    0.37580004    0.11300000
opls_146-1042    H    0.60845000    0.96868991    0.37639994    0.11170000
opls_146-1043    H    0.59280997    0.97423985    0.29116994    0.11090000
opls_146-1044    H    0.63103006    0.02330004    0.29025002    0.11730000
opls_146-1045    H    0.99538006    0.94918999    0.68461991    0.10990000
opls_146-1046    H    0.03154002    0.92396986    0.68674004    0.11170000
opls_146-1047    H    0.94891001    0.87219000    0.72330001    0.11170000
opls_146-1048    H    0.94705990    0.82913985    0.70509010    0.11230000
opls_146-1049    H    0.03002998    0.88100005    0.66877009    0.11410000
opls_144-1050    H    0.96962996    0.80528999    0.68196996    0.11570000
opls_146-1051    H    0.05739001    0.82834986    0.64923999    0.11410000
opls_146-1052    H    0.97917998    0.77149998    0.69114000    0.11680000
opls_146-1053    H    0.99042004    0.73349002    0.68819997    0.11090000
opls_146-1054    H    0.04431001    0.75978997    0.96353007    0.11270000
opls_146-1055    H    0.95569009    0.72924003    0.98231992    0.11260000
opls_146-1056    H    0.95305994    0.75683993    0.94451004    0.11270000
opls_146-1057    H    0.04143006    0.78730995    0.92589007    0.10970000
opls_146-1058    H    0.01568998    0.77694998    0.88015009    0.11540000
opls_146-1059    H    0.01239998    0.80413005    0.84220006    0.11490000
opls_146-1060    H    0.97123990    0.83674990    0.89441002    0.11530000
opls_144-1061    H    0.01851994    0.84015002    0.81644993    0.11810000
opls_146-1062    H    0.99698986    0.95123987    0.78636991    0.11170000
opls_146-1063    H    0.95901997    0.89674993    0.79200002    0.11230000
opls_146-1064    H    0.96248989    0.86280989    0.82232000    0.11260000
opls_146-1065    H    0.03159999    0.90675998    0.74657007    0.11440000
opls_146-1066    H    0.03470008    0.87216997    0.77645005    0.11120000
opls_146-1067    H    0.02000002    0.70410003    0.95720004    0.11300000
opls_146-1068    H    0.05855001    0.69323989    0.95659993    0.11170000
opls_146-1069    H    0.07419007    0.71442996    0.04182993    0.11090000
opls_146-1070    H    0.03596991    0.72526985    0.04275005    0.11730000
opls_702-1071    H    0.00032993    0.99966990    0.31404992    0.07820000
opls_702-1072    H    0.00032993    0.99966990    0.21433999    0.09170000
opls_146-1073    H    0.05080990    0.04518995    0.68461991    0.10990000
opls_146-1074    H    0.07603008    0.10657006    0.68674004    0.11170000
opls_146-1075    H    0.12781004    0.07572007    0.72330001    0.11170000
opls_146-1076    H    0.17085996    0.11692003    0.70509010    0.11230000
opls_146-1077    H    0.11899997    0.14803001    0.66877009    0.11420000
opls_144-1078    H    0.19471000    0.16334003    0.68196996    0.11570000
opls_146-1079    H    0.17164997    0.22803992    0.64923999    0.11420000
opls_146-1080    H    0.22849997    0.20668001    0.69114000    0.11680000
opls_146-1081    H    0.26651011    0.25593007    0.68819997    0.11090000
opls_146-1082    H    0.24020989    0.28351995    0.96353007    0.11270000
opls_146-1083    H    0.27075994    0.22545003    0.98231992    0.11260000
opls_146-1084    H    0.24316006    0.19521997    0.94451004    0.11260000
opls_146-1085    H    0.21269009    0.25312004    0.92589007    0.10970000
opls_146-1086    H    0.22304996    0.23773991    0.88015009    0.11530000
opls_146-1087    H    0.19586993    0.20726989    0.84220006    0.11490000
opls_146-1088    H    0.16325003    0.13348994    0.89441002    0.11530000
opls_144-1089    H    0.15984993    0.17736992    0.81644993    0.11820000
opls_146-1090    H    0.04876010    0.04475010    0.78636991    0.11170000
opls_146-1091    H    0.10325000    0.06126993    0.79200002    0.11230000
opls_146-1092    H    0.13718994    0.09867999    0.82232000    0.11260000
opls_146-1093    H    0.09324009    0.12384003    0.74657007    0.11440000
opls_146-1094    H    0.12782987    0.16152990    0.77645005    0.11110000
opls_146-1095    H    0.29590000    0.31489994    0.95720004    0.11300000
opls_146-1096    H    0.30676003    0.36431005    0.95659993    0.11170000
opls_146-1097    H    0.28556996    0.35875990    0.04182993    0.11090000
opls_146-1098    H    0.27472996    0.30969992    0.04275005    0.11730000
opls_146-1099    H    0.95481006    0.00461994    0.68461991    0.11000000
opls_146-1100    H    0.89342992    0.96845997    0.68674004    0.11170000
opls_146-1101    H    0.92428007    0.05109003    0.72330001    0.11170000
opls_146-1102    H    0.88307997    0.05294001    0.70509010    0.11230000
opls_146-1103    H    0.85196999    0.96997004    0.66877009    0.11410000
opls_144-1104    H    0.83665997    0.03037008    0.68196996    0.11570000
opls_146-1105    H    0.77195993    0.94260989    0.64923999    0.11410000
opls_146-1106    H    0.79331988    0.02081990    0.69114000    0.11680000
opls_146-1107    H    0.74406998    0.00958001    0.68819997    0.11090000
opls_146-1108    H    0.71647993    0.95568996    0.96353007    0.11270000
opls_146-1109    H    0.77455009    0.04431004    0.98231992    0.11260000
opls_146-1110    H    0.80478001    0.04693999    0.94451004    0.11260000
opls_146-1111    H    0.74687987    0.95856989    0.92589007    0.10980000
opls_146-1112    H    0.76226007    0.98431001    0.88015009    0.11530000
opls_146-1113    H    0.79272992    0.98759995    0.84220006    0.11490000
opls_146-1114    H    0.86651008    0.02876005    0.89441002    0.11530000
opls_144-1115    H    0.82262996    0.98147995    0.81644993    0.11810000
opls_146-1116    H    0.95524988    0.00300992    0.78636991    0.11180000
opls_146-1117    H    0.93873005    0.04098003    0.79200002    0.11230000
opls_146-1118    H    0.90132000    0.03751001    0.82232000    0.11260000
opls_146-1119    H    0.87615994    0.96839987    0.74657007    0.11440000
opls_146-1120    H    0.83847007    0.96530002    0.77645005    0.11110000
opls_146-1121    H    0.68510000    0.97999992    0.95720004    0.11300000
opls_146-1122    H    0.63568997    0.94144995    0.95659993    0.11170000
opls_146-1123    H    0.64123999    0.92581004    0.04182993    0.11090000
opls_146-1124    H    0.69030004    0.96402990    0.04275005    0.11740000
opls_146-1125    H    0.28319008    0.66137998    0.98138004    0.10990000
opls_146-1126    H    0.25796991    0.69753996    0.97925991    0.11170000
opls_146-1127    H    0.20619000    0.61490990    0.94269994    0.11170000
opls_146-1128    H    0.16313992    0.61305991    0.96091006    0.11230000
opls_146-1129    H    0.21499991    0.69602988    0.99723006    0.11410000
opls_144-1130    H    0.13928997    0.63563006    0.98402999    0.11570000
opls_146-1131    H    0.16235001    0.72339004    0.01675996    0.11410000
opls_146-1132    H    0.10549994    0.64518002    0.97485996    0.11680000
opls_146-1133    H    0.06748993    0.65641992    0.97779998    0.11090000
opls_146-1134    H    0.09378993    0.71030996    0.70247009    0.11270000
opls_146-1135    H    0.06324002    0.62168989    0.68368003    0.11260000
opls_146-1136    H    0.09083998    0.61905994    0.72148991    0.11260000
opls_146-1137    H    0.12130994    0.70743004    0.74011008    0.10980000
opls_146-1138    H    0.11095003    0.68168992    0.78585007    0.11530000
opls_146-1139    H    0.13812993    0.67839998    0.82380010    0.11500000
opls_146-1140    H    0.17074999    0.63723987    0.77158993    0.11530000
opls_144-1141    H    0.17414997    0.68451998    0.84955002    0.11810000
opls_146-1142    H    0.28523992    0.66299000    0.87963004    0.11170000
opls_146-1143    H    0.23074999    0.62501990    0.87399993    0.11230000
opls_146-1144    H    0.19680996    0.62848992    0.84367995    0.11260000
opls_146-1145    H    0.24076003    0.69760005    0.91943008    0.11440000
opls_146-1146    H    0.20617002    0.70069991    0.88954990    0.11110000
opls_146-1147    H    0.03810004    0.68600001    0.70879991    0.11300000
opls_146-1148    H    0.02723999    0.72454998    0.70940002    0.11170000
opls_146-1149    H    0.04842992    0.74018989    0.62417002    0.11090000
opls_146-1150    H    0.05927010    0.70197002    0.62325010    0.11740000
opls_702-1151    H    0.33366996    0.66633003    0.35195004    0.07820000
opls_702-1152    H    0.33366996    0.66633003    0.45165996    0.09170000
opls_146-1153    H    0.37919003    0.71680993    0.98138004    0.10990000
opls_146-1154    H    0.44057002    0.74202986    0.97925991    0.11530000
opls_146-1155    H    0.40971998    0.79380993    0.94269994    0.11170000
opls_146-1156    H    0.45091990    0.83685986    0.96091006    0.11230000
opls_146-1157    H    0.48202989    0.78499988    0.99723006    0.11410000
opls_144-1158    H    0.49733993    0.86070993    0.98402999    0.11570000
opls_146-1159    H    0.56204000    0.83764985    0.01675996    0.11410000
opls_146-1160    H    0.54067996    0.89449995    0.97485996    0.11680000
opls_146-1161    H    0.58992998    0.93250990    0.97779998    0.11090000
opls_146-1162    H    0.61752000    0.90620996    0.70247009    0.11270000
opls_146-1163    H    0.55945002    0.93675989    0.68368003    0.11260000
opls_146-1164    H    0.52921997    0.90915999    0.72148991    0.11260000
opls_146-1165    H    0.58712007    0.87868997    0.74011008    0.10970000
opls_146-1166    H    0.57173997    0.88904995    0.78585007    0.11530000
opls_146-1167    H    0.54126989    0.86186987    0.82380010    0.11500000
opls_146-1168    H    0.46748997    0.82925003    0.77158993    0.11530000
opls_144-1169    H    0.51136989    0.82584991    0.84955002    0.11820000
opls_146-1170    H    0.37874995    0.71476006    0.87963004    0.11170000
opls_146-1171    H    0.39527000    0.76925000    0.87399993    0.11230000
opls_146-1172    H    0.43267997    0.80319004    0.84367995    0.11270000
opls_146-1173    H    0.45783997    0.75923994    0.91943008    0.11440000
opls_146-1174    H    0.49553007    0.79382996    0.88954990    0.11110000
opls_146-1175    H    0.64889996    0.96189990    0.70879991    0.11300000
opls_146-1176    H    0.69831009    0.97276004    0.70940002    0.11170000
opls_146-1177    H    0.69276008    0.95156997    0.62417002    0.11090000
opls_146-1178    H    0.64369991    0.94072986    0.62325010    0.11730000
opls_146-1179    H    0.33861991    0.62080997    0.98138004    0.10990000
opls_146-1180    H    0.30245998    0.55942986    0.97925991    0.11170000
opls_146-1181    H    0.38509004    0.59028007    0.94269994    0.11170000
opls_146-1182    H    0.38693990    0.54907990    0.96091006    0.11230000
opls_146-1183    H    0.30396993    0.51796992    0.99723006    0.11410000
opls_144-1184    H    0.36436993    0.50265989    0.98402999    0.11570000
opls_146-1185    H    0.27661001    0.43796000    0.01675996    0.11410000
opls_146-1186    H    0.35481992    0.45931992    0.97485996    0.11680000
opls_146-1187    H    0.34358011    0.41007007    0.97779998    0.11090000
opls_146-1188    H    0.28968990    0.38247997    0.70247009    0.11280000
opls_146-1189    H    0.37830987    0.44054989    0.68368003    0.11270000
opls_146-1190    H    0.38094006    0.47077996    0.72148991    0.11260000
opls_146-1191    H    0.29257000    0.41287988    0.74011008    0.10970000
opls_146-1192    H    0.31831002    0.42826002    0.78585007    0.11530000
opls_146-1193    H    0.32160001    0.45873004    0.82380010    0.11490000
opls_146-1194    H    0.36276006    0.53250999    0.77158993    0.11530000
opls_144-1195    H    0.31547997    0.48863000    0.84955002    0.11810000
opls_146-1196    H    0.33701007    0.62125004    0.87963004    0.11170000
opls_146-1197    H    0.37498003    0.60472999    0.87399993    0.11230000
opls_146-1198    H    0.37150991    0.56731993    0.84367995    0.11260000
opls_146-1199    H    0.30240002    0.54215989    0.91943008    0.11440000
opls_146-1200    H    0.29929993    0.50447002    0.88954990    0.11110000
opls_146-1201    H    0.31400002    0.35109998    0.70879991    0.11300000
opls_146-1202    H    0.27545005    0.30169009    0.70940002    0.11170000
opls_146-1203    H    0.25981002    0.30724003    0.62417002    0.11090000
opls_146-1204    H    0.29803000    0.35630000    0.62325010    0.11750000
opls_146-1205    H    0.71780993    0.37919003    0.01761999    0.10990000
opls_146-1206    H    0.74303001    0.44056992    0.01973991    0.11170000
opls_146-1207    H    0.79480997    0.40971993    0.05630009    0.11170000
opls_146-1208    H    0.83785989    0.45091989    0.03808997    0.11230000
opls_146-1209    H    0.78599990    0.48202987    0.00176996    0.11410000
opls_144-1210    H    0.86170993    0.49733989    0.01497004    0.11570000
opls_146-1211    H    0.83865000    0.56204000    0.98224007    0.11430000
opls_146-1212    H    0.89549990    0.54067987    0.02414007    0.11680000
opls_146-1213    H    0.93351004    0.58992993    0.02120005    0.11090000
opls_146-1214    H    0.90720993    0.61752003    0.29652994    0.11270000
opls_146-1215    H    0.93775987    0.55944989    0.31531999    0.11260000
opls_146-1216    H    0.91016010    0.52922004    0.27750991    0.11260000
opls_146-1217    H    0.87969002    0.58711991    0.25888995    0.10970000
opls_146-1218    H    0.89005000    0.57173998    0.21314996    0.11530000
opls_146-1219    H    0.86286997    0.54126996    0.17519993    0.11490000
opls_146-1220    H    0.83025007    0.46749001    0.22741010    0.11530000
opls_144-1221    H    0.82684997    0.51137000    0.14945001    0.11810000
opls_146-1222    H    0.71576003    0.37874996    0.11936999    0.11170000
opls_146-1223    H    0.77025003    0.39527001    0.12500010    0.11230000
opls_146-1224    H    0.80418998    0.43268007    0.15532008    0.11260000
opls_146-1225    H    0.76024002    0.45783989    0.07956995    0.11440000
opls_146-1226    H    0.79482990    0.49552998    0.10944992    0.11110000
opls_146-1227    H    0.96290003    0.64890002    0.29019991    0.11300000
opls_146-1228    H    0.97375996    0.69830991    0.28960001    0.11090000
opls_146-1229    H    0.95256999    0.69275997    0.37483001    0.11090000
opls_146-1230    H    0.94173000    0.64370000    0.37574993    0.11730000
opls_702-1231    H    0.66732994    0.33365996    0.64704999    0.07820000
opls_702-1232    H    0.66732994    0.33365996    0.54734006    0.09170000
opls_146-1233    H    0.62181010    0.33862002    0.01761999    0.10990000
opls_146-1234    H    0.56042995    0.30246004    0.01973991    0.11170000
opls_146-1235    H    0.59128000    0.38508989    0.05630009    0.11170000
opls_146-1236    H    0.55007990    0.38693987    0.03808997    0.11230000
opls_146-1237    H    0.51896992    0.30396990    0.00176996    0.11410000
opls_144-1238    H    0.50365990    0.36436994    0.01497004    0.11570000
opls_146-1239    H    0.43895997    0.27660996    0.98224007    0.11410000
opls_146-1240    H    0.46031992    0.35481998    0.02414007    0.11680000
opls_146-1241    H    0.41107001    0.34358008    0.02120005    0.11090000
opls_146-1242    H    0.38347997    0.28969004    0.29652994    0.11270000
opls_146-1243    H    0.44155002    0.37830990    0.31531999    0.11260000
opls_146-1244    H    0.47178005    0.38094006    0.27750991    0.11260000
opls_146-1245    H    0.41387990    0.29256996    0.25888995    0.10980000
opls_146-1246    H    0.42926011    0.31831008    0.21314996    0.11530000
opls_146-1247    H    0.45972996    0.32160002    0.17519993    0.11490000
opls_146-1248    H    0.53351001    0.36275991    0.22741010    0.11530000
opls_144-1249    H    0.48962999    0.31548002    0.14945001    0.11810000
opls_146-1250    H    0.62224992    0.33701000    0.11936999    0.11170000
opls_146-1251    H    0.60572998    0.37497989    0.12500010    0.11230000
opls_146-1252    H    0.56832004    0.37151008    0.15532008    0.11260000
opls_146-1253    H    0.54315998    0.30239995    0.07956995    0.11440000
opls_146-1254    H    0.50547001    0.29929988    0.10944992    0.11120000
opls_146-1255    H    0.35210003    0.31399999    0.29019991    0.11300000
opls_146-1256    H    0.30269001    0.27545002    0.28960001    0.11170000
opls_146-1257    H    0.30823992    0.25980990    0.37483001    0.11090000
opls_146-1258    H    0.35730008    0.29802998    0.37574993    0.11740000
opls_146-1259    H    0.66238010    0.28319007    0.01761999    0.10990000
opls_146-1260    H    0.69854006    0.25796993    0.01973991    0.11180000
opls_146-1261    H    0.61591005    0.20619007    0.05630009    0.11170000
opls_146-1262    H    0.61405994    0.16313993    0.03808997    0.11230000
opls_146-1263    H    0.69702991    0.21499991    0.00176996    0.11410000
opls_144-1264    H    0.63663000    0.13929007    0.01497004    0.11570000
opls_146-1265    H    0.72439005    0.16234994    0.98224007    0.11410000
opls_146-1266    H    0.64618002    0.10550005    0.02414007    0.11680000
opls_146-1267    H    0.65742008    0.06749010    0.02120005    0.11100000
opls_146-1268    H    0.71131004    0.09379004    0.29652994    0.11270000
opls_146-1269    H    0.62269002    0.06323989    0.31531999    0.11260000
opls_146-1270    H    0.62005998    0.09084001    0.27750991    0.11260000
opls_146-1271    H    0.70843010    0.12131003    0.25888995    0.10970000
opls_146-1272    H    0.68269002    0.11095005    0.21314996    0.11530000
opls_146-1273    H    0.67939991    0.13812991    0.17519993    0.11490000
opls_146-1274    H    0.63823994    0.17074997    0.22741010    0.11530000
opls_144-1275    H    0.68551998    0.17415009    0.14945001    0.11810000
opls_146-1276    H    0.66398989    0.28523994    0.11936999    0.11170000
opls_146-1277    H    0.62602001    0.23075000    0.12500010    0.11230000
opls_146-1278    H    0.62948993    0.19680996    0.15532008    0.11260000
opls_146-1279    H    0.69860002    0.24076006    0.07956995    0.11440000
opls_146-1280    H    0.70170011    0.20617004    0.10944992    0.11110000
opls_146-1281    H    0.68700006    0.03810010    0.29019991    0.11310000
opls_146-1282    H    0.72555005    0.02723996    0.28960001    0.11190000
opls_146-1283    H    0.74119011    0.04843003    0.37483001    0.11090000
opls_146-1284    H    0.70296994    0.05926993    0.37574993    0.11730000
opls_146-1285    H    0.00561994    0.95481005    0.31437991    0.10990000
opls_146-1286    H    0.96946002    0.89342994    0.31225999    0.11170000
opls_146-1287    H    0.05208997    0.92427993    0.27570002    0.11170000
opls_146-1288    H    0.05393993    0.88307997    0.29390993    0.11230000
opls_146-1289    H    0.97096996    0.85196999    0.33022994    0.11410000
opls_144-1290    H    0.03136997    0.83665997    0.31703007    0.11570000
opls_146-1291    H    0.94360994    0.77195987    0.34976004    0.11410000
opls_146-1292    H    0.02181996    0.79331999    0.30786003    0.11680000
opls_146-1293    H    0.01058004    0.74406993    0.31080006    0.11090000
opls_146-1294    H    0.95668994    0.71648005    0.03546996    0.11280000
opls_146-1295    H    0.04530990    0.77454997    0.01667991    0.11260000
opls_146-1296    H    0.04794009    0.80478003    0.05448999    0.11260000
opls_146-1297    H    0.95957004    0.74687996    0.07310995    0.10970000
opls_146-1298    H    0.98530995    0.76225988    0.11884994    0.11530000
opls_146-1299    H    0.98859994    0.79272990    0.15679997    0.11500000
opls_146-1300    H    0.02975999    0.86650985    0.10459001    0.11530000
opls_144-1301    H    0.98247990    0.82262986    0.18255010    0.11810000
opls_146-1302    H    0.00401000    0.95524990    0.21262991    0.11170000
opls_146-1303    H    0.04197996    0.93872985    0.20700000    0.11230000
opls_146-1304    H    0.03850994    0.90132001    0.17668003    0.11260000
opls_146-1305    H    0.96940006    0.87615997    0.25242996    0.11440000
opls_146-1306    H    0.96629986    0.83846988    0.22254998    0.11110000
opls_146-1307    H    0.98100005    0.68510006    0.04179999    0.11300000
opls_146-1308    H    0.94244998    0.63568995    0.04240009    0.11180000
opls_146-1309    H    0.92680995    0.64123989    0.95717009    0.11090000
opls_146-1310    H    0.96502993    0.69029986    0.95624997    0.11740000
opls_702-1311    H    0.00066991    0.00033991    0.68494991    0.07820000
opls_702-1312    H    0.00066991    0.00033991    0.78466004    0.09170000
opls_146-1313    H    0.95019001    0.99537984    0.31437991    0.10990000
opls_146-1314    H    0.92496995    0.03154003    0.31225999    0.11170000
opls_146-1315    H    0.87319004    0.94890997    0.27570002    0.11170000
opls_146-1316    H    0.83013996    0.94705999    0.29390993    0.11230000
opls_146-1317    H    0.88199994    0.03002996    0.33022994    0.11410000
opls_144-1318    H    0.80628990    0.96962992    0.31703007    0.11570000
opls_146-1319    H    0.82934994    0.05738990    0.34976004    0.11410000
opls_146-1320    H    0.77249987    0.97917988    0.30786003    0.11680000
opls_146-1321    H    0.73448997    0.99041999    0.31080006    0.11090000
opls_146-1322    H    0.76078997    0.04431004    0.03546996    0.11270000
opls_146-1323    H    0.73024006    0.95568996    0.01667991    0.11260000
opls_146-1324    H    0.75784002    0.95306001    0.05448999    0.11260000
opls_146-1325    H    0.78830987    0.04142990    0.07310995    0.10970000
opls_146-1326    H    0.77795006    0.01568999    0.11884994    0.11530000
opls_146-1327    H    0.80512997    0.01240005    0.15679997    0.11490000
opls_146-1328    H    0.83775003    0.97123995    0.10459001    0.11540000
opls_144-1329    H    0.84115001    0.01852005    0.18255010    0.11810000
opls_146-1330    H    0.95223985    0.99698987    0.21262991    0.11190000
opls_146-1331    H    0.89775002    0.95901997    0.20700000    0.11230000
opls_146-1332    H    0.86380999    0.96248999    0.17668003    0.11260000
opls_146-1333    H    0.90775996    0.03159991    0.25242996    0.11450000
opls_146-1334    H    0.87317006    0.03469998    0.22254998    0.11110000
opls_146-1335    H    0.70510008    0.02000008    0.04179999    0.11300000
opls_146-1336    H    0.69424002    0.05855005    0.04240009    0.11170000
opls_146-1337    H    0.71542996    0.07418996    0.95717009    0.11090000
opls_146-1338    H    0.72627014    0.03597010    0.95624997    0.11730000
opls_146-1339    H    0.04619007    0.05081001    0.31437991    0.10990000
opls_146-1340    H    0.10757006    0.07602993    0.31225999    0.11170000
opls_146-1341    H    0.07672001    0.12781000    0.27570002    0.11170000
opls_146-1342    H    0.11791994    0.17085994    0.29390993    0.11230000
opls_146-1343    H    0.14902993    0.11899995    0.33022994    0.11410000
opls_144-1344    H    0.16433997    0.19471001    0.31703007    0.11570000
opls_146-1345    H    0.22904004    0.17164992    0.34976004    0.11410000
opls_146-1346    H    0.20768000    0.22850002    0.30786003    0.11680000
opls_146-1347    H    0.25693001    0.26650998    0.31080006    0.11100000
opls_146-1348    H    0.28452004    0.24021003    0.03546996    0.11270000
opls_146-1349    H    0.22645006    0.27075997    0.01667991    0.11260000
opls_146-1350    H    0.19622001    0.24316007    0.05448999    0.11270000
opls_146-1351    H    0.25412011    0.21269005    0.07310995    0.10970000
opls_146-1352    H    0.23874001    0.22305002    0.11884994    0.11530000
opls_146-1353    H    0.20826992    0.19586995    0.15679997    0.11490000
opls_146-1354    H    0.13448990    0.16324989    0.10459001    0.11530000
opls_144-1355    H    0.17836992    0.15984998    0.18255010    0.11810000
opls_146-1356    H    0.04574988    0.04875992    0.21262991    0.11170000
opls_146-1357    H    0.06227004    0.10325007    0.20700000    0.11230000
opls_146-1358    H    0.09967990    0.13718990    0.17668003    0.11260000
opls_146-1359    H    0.12484000    0.09324002    0.25242996    0.11440000
opls_146-1360    H    0.16253011    0.12783003    0.22254998    0.11110000
opls_146-1361    H    0.31589999    0.29589997    0.04179999    0.11300000
opls_146-1362    H    0.36531002    0.30675990    0.04240009    0.11170000
opls_146-1363    H    0.35976011    0.28557004    0.95717009    0.11100000
opls_146-1364    H    0.31069995    0.27472993    0.95624997    0.11730000
