#======================================================================
# Crystal Data Generated By AuToFF
#----------------------------------------------------------------------

data_AuToFF_phase_1

_cell_length_a                         25.4170
_cell_length_b                         25.4170
_cell_length_c                         12.3770
_cell_angle_alpha                      90.00
_cell_angle_beta                       90.00
_cell_angle_gamma                      90.00
_symmetry_space_group_name_H-M_alt     'P 1'
_symmetry_space_group_IT_number        1

loop_
_space_group_symop_operation_xyz
   'x, y, z'

loop_
   _atom_site_label
   _atom_site_type_symbol
   _atom_site_fract_x
   _atom_site_fract_y
   _atom_site_fract_z
   _atom_site_charge
opls_145-0    C    0.30599992    0.00800016    0.23599984    0.19940000
opls_145-1    C    0.28299996    0.03400008    0.32299992    -0.17130000
opls_145-2    C    0.22800016    0.03299996    0.33899976    -0.11060000
opls_145-3    C    0.46599992    0.04299996    0.14800032    -0.11760000
opls_700-4    C    0.19500020    0.00899988    0.26499960    0.06340000
opls_700-5    C    0.13700004    0.00700004    0.28199968    -0.13300000
opls_145-6    C    0.21800016    0.98299996    0.16899976    -0.09500000
opls_145-7    C    0.27199984    0.98000000    0.15700008    -0.16530000
opls_142-8    C    0.38899988    0.98299996    0.15400016    0.02910000
opls_145-9    C    0.48000000    0.94899988    0.14599984    -0.11770000
opls_700-10    C    0.44500020    0.99199984    0.14800032    0.06440000
opls_507-11    C    0.11199984    0.95499980    0.28800032    0.19300000
opls_716-12    C    0.14000000    0.90800016    0.29000000    -0.19670000
opls_507-13    C    0.05499980    0.89199984    0.28599984    0.18630000
opls_716-14    C    0.10400008    0.86800016    0.28599984    -0.19760000
opls_145-15    C    0.99199984    0.30599992    0.23599984    0.19950000
opls_145-16    C    0.96599992    0.28299996    0.32299992    -0.17130000
opls_145-17    C    0.96700004    0.22800016    0.33899976    -0.11500000
opls_145-18    C    0.95700004    0.46599992    0.14800032    -0.12940000
opls_700-19    C    0.99100012    0.19500020    0.26499960    0.06330000
opls_700-20    C    0.99299996    0.13700004    0.28199968    -0.13300000
opls_145-21    C    0.01700004    0.21800016    0.16899976    -0.09500000
opls_145-22    C    0.02000000    0.27199984    0.15700008    -0.16550000
opls_142-23    C    0.01700004    0.38899988    0.15400016    0.02790000
opls_145-24    C    0.05100012    0.48000000    0.14599984    -0.11770000
opls_700-25    C    0.00800016    0.44500020    0.14800032    0.06440000
opls_543-26    C    0.04499980    0.11199984    0.28800032    0.17100000
opls_716-27    C    0.09199984    0.14000000    0.29000000    -0.19670000
opls_543-28    C    0.10800016    0.05499980    0.28599984    0.18180000
opls_716-29    C    0.13199984    0.10400008    0.28599984    -0.19760000
opls_145-30    C    0.69400008    0.99199984    0.23599984    0.19940000
opls_145-31    C    0.71700004    0.96599992    0.32299992    -0.17130000
opls_145-32    C    0.77199984    0.96700004    0.33899976    -0.11060000
opls_145-33    C    0.53400008    0.95700004    0.14800032    -0.11760000
opls_700-34    C    0.80500020    0.99100012    0.26499960    0.06330000
opls_700-35    C    0.86299996    0.99299996    0.28199968    -0.13300000
opls_145-36    C    0.78199984    0.01700004    0.16899976    -0.09500000
opls_145-37    C    0.72800016    0.02000000    0.15700008    -0.16530000
opls_142-38    C    0.61100012    0.01700004    0.15400016    0.02910000
opls_145-39    C    0.52000000    0.05100012    0.14599984    -0.11770000
opls_700-40    C    0.55499980    0.00800016    0.14800032    0.06440000
opls_507-41    C    0.88800016    0.04499980    0.28800032    0.19300000
opls_716-42    C    0.86000000    0.09199984    0.29000000    -0.19670000
opls_507-43    C    0.94500020    0.10800016    0.28599984    0.18630000
opls_716-44    C    0.89599992    0.13199984    0.28599984    -0.19760000
opls_145-45    C    0.00800016    0.69400008    0.23599984    0.19940000
opls_145-46    C    0.03400008    0.71700004    0.32299992    -0.17130000
opls_145-47    C    0.03299996    0.77199984    0.33899976    -0.11500000
opls_145-48    C    0.04299996    0.53400008    0.14800032    -0.12950000
opls_700-49    C    0.00899988    0.80500020    0.26499960    0.06330000
opls_700-50    C    0.00700004    0.86299996    0.28199968    -0.13300000
opls_145-51    C    0.98299996    0.78199984    0.16899976    -0.09500000
opls_145-52    C    0.98000000    0.72800016    0.15700008    -0.16550000
opls_142-53    C    0.98299996    0.61100012    0.15400016    0.02790000
opls_145-54    C    0.94899988    0.52000000    0.14599984    -0.11770000
opls_700-55    C    0.99199984    0.55499980    0.14800032    0.06440000
opls_543-56    C    0.95499980    0.88800016    0.28800032    0.17100000
opls_716-57    C    0.90800016    0.86000000    0.29000000    -0.19670000
opls_543-58    C    0.89199984    0.94500020    0.28599984    0.18180000
opls_716-59    C    0.86800016    0.89599992    0.28599984    -0.19760000
opls_145-60    C    0.00800016    0.69400008    0.76400016    0.19940000
opls_145-61    C    0.03400008    0.71700004    0.67700008    -0.17130000
opls_145-62    C    0.03299996    0.77199984    0.66100024    -0.11060000
opls_145-63    C    0.04299996    0.53400008    0.85199968    -0.11760000
opls_700-64    C    0.00899988    0.80500020    0.73499960    0.06330000
opls_700-65    C    0.00700004    0.86299996    0.71800032    -0.13300000
opls_145-66    C    0.98299996    0.78199984    0.83100024    -0.09500000
opls_145-67    C    0.98000000    0.72800016    0.84299992    -0.16530000
opls_142-68    C    0.98299996    0.61100012    0.84599984    0.02910000
opls_145-69    C    0.94899988    0.52000000    0.85400016    -0.11770000
opls_700-70    C    0.99199984    0.55499980    0.85199968    0.06440000
opls_507-71    C    0.95499980    0.88800016    0.71199968    0.19300000
opls_716-72    C    0.90800016    0.86000000    0.71000000    -0.19670000
opls_507-73    C    0.89199984    0.94500020    0.71400016    0.18630000
opls_716-74    C    0.86800016    0.89599992    0.71400016    -0.19760000
opls_145-75    C    0.30599992    0.00800016    0.76400016    0.19940000
opls_145-76    C    0.28299996    0.03400008    0.67700008    -0.17130000
opls_145-77    C    0.22800016    0.03299996    0.66100024    -0.11500000
opls_145-78    C    0.46599992    0.04299996    0.85199968    -0.12950000
opls_700-79    C    0.19500020    0.00899988    0.73499960    0.06330000
opls_700-80    C    0.13700004    0.00700004    0.71800032    -0.13300000
opls_145-81    C    0.21800016    0.98299996    0.83100024    -0.09500000
opls_145-82    C    0.27199984    0.98000000    0.84299992    -0.16550000
opls_142-83    C    0.38899988    0.98299996    0.84599984    0.02790000
opls_145-84    C    0.48000000    0.94899988    0.85400016    -0.11770000
opls_700-85    C    0.44500020    0.99199984    0.85199968    0.06440000
opls_543-86    C    0.11199984    0.95499980    0.71199968    0.17110000
opls_716-87    C    0.14000000    0.90800016    0.71000000    -0.19670000
opls_543-88    C    0.05499980    0.89199984    0.71400016    0.18180000
opls_716-89    C    0.10400008    0.86800016    0.71400016    -0.19760000
opls_145-90    C    0.99199984    0.30599992    0.76400016    0.19940000
opls_145-91    C    0.96599992    0.28299996    0.67700008    -0.17130000
opls_145-92    C    0.96700004    0.22800016    0.66100024    -0.11060000
opls_145-93    C    0.95700004    0.46599992    0.85199968    -0.11750000
opls_700-94    C    0.99100012    0.19500020    0.73499960    0.06330000
opls_700-95    C    0.99299996    0.13700004    0.71800032    -0.13300000
opls_145-96    C    0.01700004    0.21800016    0.83100024    -0.09500000
opls_145-97    C    0.02000000    0.27199984    0.84299992    -0.16520000
opls_142-98    C    0.01700004    0.38899988    0.84599984    0.02910000
opls_145-99    C    0.05100012    0.48000000    0.85400016    -0.11770000
opls_700-100    C    0.00800016    0.44500020    0.85199968    0.06440000
opls_507-101    C    0.04499980    0.11199984    0.71199968    0.19300000
opls_716-102    C    0.09199984    0.14000000    0.71000000    -0.19670000
opls_507-103    C    0.10800016    0.05499980    0.71400016    0.18640000
opls_716-104    C    0.13199984    0.10400008    0.71400016    -0.19760000
opls_145-105    C    0.69400008    0.99199984    0.76400016    0.19940000
opls_145-106    C    0.71700004    0.96599992    0.67700008    -0.17130000
opls_145-107    C    0.77199984    0.96700004    0.66100024    -0.11500000
opls_145-108    C    0.53400008    0.95700004    0.85199968    -0.12950000
opls_700-109    C    0.80500020    0.99100012    0.73499960    0.06330000
opls_700-110    C    0.86299996    0.99299996    0.71800032    -0.13300000
opls_145-111    C    0.78199984    0.01700004    0.83100024    -0.09500000
opls_145-112    C    0.72800016    0.02000000    0.84299992    -0.16550000
opls_142-113    C    0.61100012    0.01700004    0.84599984    0.02790000
opls_145-114    C    0.52000000    0.05100012    0.85400016    -0.11770000
opls_700-115    C    0.55499980    0.00800016    0.85199968    0.06440000
opls_543-116    C    0.88800016    0.04499980    0.71199968    0.17100000
opls_716-117    C    0.86000000    0.09199984    0.71000000    -0.19670000
opls_543-118    C    0.94500020    0.10800016    0.71400016    0.18190000
opls_716-119    C    0.89599992    0.13199984    0.71400016    -0.19760000
opls_750-120    N    0.35899988    0.01100012    0.22400016    -0.29870000
opls_542-121    N    0.05899988    0.94500020    0.28700008    -0.29940000
opls_750-122    N    0.98899988    0.35899988    0.22400016    -0.29880000
opls_542-123    N    0.05499980    0.05899988    0.28700008    -0.24420000
opls_750-124    N    0.64100012    0.98899988    0.22400016    -0.29890000
opls_542-125    N    0.94100012    0.05499980    0.28700008    -0.29940000
opls_750-126    N    0.01100012    0.64100012    0.22400016    -0.29880000
opls_542-127    N    0.94500020    0.94100012    0.28700008    -0.24420000
opls_750-128    N    0.01100012    0.64100012    0.77599984    -0.29890000
opls_542-129    N    0.94500020    0.94100012    0.71299992    -0.29940000
opls_750-130    N    0.35899988    0.01100012    0.77599984    -0.29890000
opls_542-131    N    0.05899988    0.94500020    0.71299992    -0.24410000
opls_750-132    N    0.98899988    0.35899988    0.77599984    -0.29890000
opls_542-133    N    0.05499980    0.05899988    0.71299992    -0.29940000
opls_750-134    N    0.64100012    0.98899988    0.77599984    -0.29890000
opls_542-135    N    0.94100012    0.05499980    0.71299992    -0.24420000
opls_146-136    H    0.30786009    0.05388992    0.38109962    0.11860000
opls_146-137    H    0.21156982    0.05225990    0.40902965    0.12360000
opls_146-138    H    0.43980013    0.07662981    0.14856023    0.11930000
opls_146-139    H    0.19261990    0.96426998    0.11010988    0.11550000
opls_146-140    H    0.28863005    0.95906991    0.08965016    0.11760000
opls_144-141    H    0.37544006    0.94371012    0.13440010    0.10870000
opls_146-142    H    0.46498997    0.90911988    0.14560960    0.11380000
opls_547-143    H    0.18220010    0.90271000    0.29249010    0.11900000
opls_547-144    H    0.11403982    0.82676988    0.28198029    0.11890000
opls_545-145    H    0.97062989    0.02801983    0.71724004    0.23430000
opls_146-146    H    0.94573002    0.30779990    0.38065040    0.11830000
opls_146-147    H    0.94798993    0.21160011    0.40933990    0.11470000
opls_146-148    H    0.92335996    0.43983987    0.14963965    0.11340000
opls_146-149    H    0.03573986    0.19261006    0.11013978    0.11550000
opls_146-150    H    0.04071999    0.28807019    0.08901996    0.09740000
opls_144-151    H    0.04899988    0.37273990    0.10718025    0.12300000
opls_146-152    H    0.09083999    0.46486997    0.14644017    0.11610000
opls_547-153    H    0.09692017    0.18223984    0.29190999    0.12130000
opls_547-154    H    0.17330015    0.11364992    0.28161024    0.11470000
opls_146-155    H    0.69213991    0.94611008    0.38109962    0.11860000
opls_146-156    H    0.78843018    0.94774010    0.40902965    0.12360000
opls_146-157    H    0.56019987    0.92337019    0.14856023    0.11950000
opls_146-158    H    0.80738010    0.03573002    0.11010988    0.11550000
opls_146-159    H    0.71136995    0.04093009    0.08965016    0.11760000
opls_144-160    H    0.62455994    0.05628988    0.13440010    0.10880000
opls_146-161    H    0.53501003    0.09088012    0.14560960    0.11370000
opls_547-162    H    0.81779990    0.09729000    0.29249010    0.11910000
opls_547-163    H    0.88596018    0.17323012    0.28198029    0.11890000
opls_545-164    H    0.02937011    0.97198017    0.71724004    0.23430000
opls_146-165    H    0.05426998    0.69220010    0.38065040    0.11830000
opls_146-166    H    0.05201007    0.78839989    0.40933990    0.11470000
opls_146-167    H    0.07664004    0.56016013    0.14963965    0.11340000
opls_146-168    H    0.96426014    0.80738994    0.11013978    0.11550000
opls_146-169    H    0.95928001    0.71192981    0.08901996    0.09740000
opls_144-170    H    0.95100012    0.62726010    0.10718025    0.12310000
opls_146-171    H    0.90916001    0.53513003    0.14644017    0.11610000
opls_547-172    H    0.90307983    0.81776016    0.29190999    0.12130000
opls_547-173    H    0.82669985    0.88635008    0.28161024    0.11470000
opls_146-174    H    0.05388992    0.69213991    0.61890038    0.11860000
opls_146-175    H    0.05225990    0.78843018    0.59097035    0.12360000
opls_146-176    H    0.07662981    0.56019987    0.85143977    0.11930000
opls_146-177    H    0.96426998    0.80738010    0.88989012    0.11550000
opls_146-178    H    0.95906991    0.71136995    0.91034984    0.11760000
opls_144-179    H    0.94371012    0.62455994    0.86559990    0.10870000
opls_146-180    H    0.90911988    0.53501003    0.85439040    0.11380000
opls_547-181    H    0.90271000    0.81779990    0.70750990    0.11900000
opls_547-182    H    0.82676988    0.88596018    0.71801971    0.11890000
opls_545-183    H    0.02801983    0.02937011    0.28275996    0.23430000
opls_146-184    H    0.30779990    0.05426998    0.61934960    0.11840000
opls_146-185    H    0.21160011    0.05201007    0.59066010    0.11470000
opls_146-186    H    0.43983987    0.07664004    0.85036035    0.11340000
opls_146-187    H    0.19261006    0.96426014    0.88986022    0.11550000
opls_146-188    H    0.28807019    0.95928001    0.91098004    0.09740000
opls_144-189    H    0.37273990    0.95100012    0.89281975    0.12300000
opls_146-190    H    0.46486997    0.90916001    0.85355983    0.11610000
opls_547-191    H    0.18223984    0.90307983    0.70809001    0.12130000
opls_547-192    H    0.11364992    0.82669985    0.71838976    0.11470000
opls_146-193    H    0.94611008    0.30786009    0.61890038    0.11870000
opls_146-194    H    0.94774010    0.21156982    0.59097035    0.12360000
opls_146-195    H    0.92337019    0.43980013    0.85143977    0.11930000
opls_146-196    H    0.03573002    0.19261990    0.88989012    0.11550000
opls_146-197    H    0.04093009    0.28863005    0.91034984    0.11760000
opls_144-198    H    0.05628988    0.37544006    0.86559990    0.10870000
opls_146-199    H    0.09088012    0.46498997    0.85439040    0.11370000
opls_547-200    H    0.09729000    0.18220010    0.70750990    0.11900000
opls_547-201    H    0.17323012    0.11403982    0.71801971    0.11890000
opls_545-202    H    0.97198017    0.97062989    0.28275996    0.23440000
opls_146-203    H    0.69220010    0.94573002    0.61934960    0.11830000
opls_146-204    H    0.78839989    0.94798993    0.59066010    0.11470000
opls_146-205    H    0.56016013    0.92335996    0.85036035    0.11340000
opls_146-206    H    0.80738994    0.03573986    0.88986022    0.11560000
opls_146-207    H    0.71192981    0.04071999    0.91098004    0.09740000
opls_144-208    H    0.62726010    0.04899988    0.89281975    0.12300000
opls_146-209    H    0.53513003    0.09083999    0.85355983    0.11610000
opls_547-210    H    0.81776016    0.09692017    0.70809001    0.12130000
opls_547-211    H    0.88635008    0.17330015    0.71838976    0.11470000
