#======================================================================
# Crystal Data Generated By AuToFF
#----------------------------------------------------------------------

data_AuToFF_phase_1

_cell_length_a                         26.1114
_cell_length_b                         26.1114
_cell_length_c                         26.1114
_cell_angle_alpha                      90.00
_cell_angle_beta                       90.00
_cell_angle_gamma                      90.00
_symmetry_space_group_name_H-M_alt     'P 1'
_symmetry_space_group_IT_number        1

loop_
_space_group_symop_operation_xyz
   'x, y, z'

loop_
   _atom_site_label
   _atom_site_type_symbol
   _atom_site_fract_x
   _atom_site_fract_y
   _atom_site_fract_z
   _atom_site_charge
opls_523-0    C    0.97754008    0.31183008    0.01132992    0.22700000
opls_522-1    C    0.95499016    0.35527011    0.02295013    -0.44700000
opls_521-2    C    0.97749987    0.39882006    0.01139004    0.47300000
opls_523-3    C    0.91077997    0.35673997    0.04660991    0.22700000
opls_522-4    C    0.89148992    0.40089999    0.06058005    -0.44700000
opls_521-5    C    0.91604012    0.44346990    0.04965992    0.47300000
opls_522-6    C    0.09299999    0.49308999    0.93019984    -0.44700000
opls_523-7    C    0.13650015    0.51700981    0.93582994    0.22700000
opls_145-8    C    0.14156997    0.56358985    0.91876001    -0.11500000
opls_145-9    C    0.10315992    0.58641015    0.89536984    -0.11500000
opls_145-10    C    0.06102009    0.56077001    0.88662002    -0.11500000
opls_523-11    C    0.05594989    0.51428993    0.90386000    0.22700000
opls_145-12    C    0.60817995    0.78287989    0.40142007    -0.11500000
opls_145-13    C    0.65522990    0.76676011    0.40819987    -0.11500000
opls_145-14    C    0.66768997    0.72030990    0.39683012    -0.11500000
opls_145-15    C    0.63313993    0.68844987    0.37937989    -0.11500000
opls_145-16    C    0.58573995    0.70443982    0.37251009    -0.11500000
opls_145-17    C    0.57360004    0.75202019    0.38272019    -0.11500000
opls_142-18    C    0.60822016    0.36791018    0.86666016    -0.11500000
opls_139-19    C    0.13206990    0.13206990    0.13206990    0.00000000
opls_523-20    C    0.02245992    0.68816992    0.01132992    0.22700000
opls_522-21    C    0.04500984    0.64472989    0.02295013    -0.44700000
opls_521-22    C    0.02250013    0.60117994    0.01139004    0.47300000
opls_523-23    C    0.08922003    0.64326003    0.04660991    0.22700000
opls_522-24    C    0.10851008    0.59910001    0.06058005    -0.44700000
opls_521-25    C    0.08395988    0.55653010    0.04965992    0.47300000
opls_522-26    C    0.90700001    0.50691001    0.93019984    -0.44700000
opls_523-27    C    0.86349985    0.48299019    0.93582994    0.22700000
opls_145-28    C    0.85843003    0.43641015    0.91876001    -0.11500000
opls_145-29    C    0.89684008    0.41358985    0.89536984    -0.11500000
opls_145-30    C    0.93897991    0.43922999    0.88662002    -0.11500000
opls_523-31    C    0.94405011    0.48571007    0.90386000    0.22700000
opls_145-32    C    0.39182005    0.21712011    0.40142007    -0.11500000
opls_145-33    C    0.34477010    0.23323989    0.40819987    -0.11500000
opls_145-34    C    0.33231003    0.27969010    0.39683012    -0.11500000
opls_145-35    C    0.36686007    0.31155013    0.37937989    -0.11500000
opls_145-36    C    0.41426005    0.29556018    0.37251009    -0.11500000
opls_145-37    C    0.42639996    0.24797981    0.38272019    -0.11500000
opls_142-38    C    0.39177984    0.63208982    0.86666016    -0.11500000
opls_139-39    C    0.86793010    0.86793010    0.13206990    0.00000000
opls_523-40    C    0.02245992    0.31183008    0.98867008    0.22700000
opls_522-41    C    0.04500984    0.35527011    0.97704987    -0.44700000
opls_521-42    C    0.02250013    0.39882006    0.98860996    0.47300000
opls_523-43    C    0.08922003    0.35673997    0.95339009    0.22700000
opls_522-44    C    0.10851008    0.40089999    0.93941995    -0.44700000
opls_521-45    C    0.08395988    0.44346990    0.95034008    0.47300000
opls_522-46    C    0.90700001    0.49308999    0.06980016    -0.44700000
opls_523-47    C    0.86349985    0.51700981    0.06417006    0.22700000
opls_145-48    C    0.85843003    0.56358985    0.08123999    -0.11500000
opls_145-49    C    0.89684008    0.58641015    0.10463016    -0.11500000
opls_145-50    C    0.93897991    0.56077001    0.11337998    -0.11500000
opls_523-51    C    0.94405011    0.51428993    0.09614000    0.22700000
opls_145-52    C    0.39182005    0.78287989    0.59857993    -0.11500000
opls_145-53    C    0.34477010    0.76676011    0.59180013    -0.11500000
opls_145-54    C    0.33231003    0.72030990    0.60316988    -0.11500000
opls_145-55    C    0.36686007    0.68844987    0.62062011    -0.11500000
opls_145-56    C    0.41426005    0.70443982    0.62748991    -0.11500000
opls_145-57    C    0.42639996    0.75202019    0.61727981    -0.11500000
opls_142-58    C    0.39177984    0.36791018    0.13333984    -0.11500000
opls_139-59    C    0.86793010    0.13206990    0.86793010    0.00000000
opls_523-60    C    0.97754008    0.68816992    0.98867008    0.22700000
opls_522-61    C    0.95499016    0.64472989    0.97704987    -0.44700000
opls_521-62    C    0.97749987    0.60117994    0.98860996    0.47300000
opls_523-63    C    0.91077997    0.64326003    0.95339009    0.22700000
opls_522-64    C    0.89148992    0.59910001    0.93941995    -0.44700000
opls_521-65    C    0.91604012    0.55653010    0.95034008    0.47300000
opls_522-66    C    0.09299999    0.50691001    0.06980016    -0.44700000
opls_523-67    C    0.13650015    0.48299019    0.06417006    0.22700000
opls_145-68    C    0.14156997    0.43641015    0.08123999    -0.11500000
opls_145-69    C    0.10315992    0.41358985    0.10463016    -0.11500000
opls_145-70    C    0.06102009    0.43922999    0.11337998    -0.11500000
opls_523-71    C    0.05594989    0.48571007    0.09614000    0.22700000
opls_145-72    C    0.60817995    0.21712011    0.59857993    -0.11500000
opls_145-73    C    0.65522990    0.23323989    0.59180013    -0.11500000
opls_145-74    C    0.66768997    0.27969010    0.60316988    -0.11500000
opls_145-75    C    0.63313993    0.31155013    0.62062011    -0.11500000
opls_145-76    C    0.58573995    0.29556018    0.62748991    -0.11500000
opls_145-77    C    0.57360004    0.24797981    0.61727981    -0.11500000
opls_142-78    C    0.60822016    0.63208982    0.13333984    -0.11500000
opls_139-79    C    0.13206990    0.86793010    0.86793010    0.00000000
opls_523-80    C    0.01132992    0.97754008    0.31183008    0.22700000
opls_522-81    C    0.02295013    0.95499016    0.35527011    -0.44700000
opls_521-82    C    0.01139004    0.97749987    0.39882006    0.47300000
opls_523-83    C    0.04660991    0.91077997    0.35673997    0.22700000
opls_522-84    C    0.06058005    0.89148992    0.40089999    -0.44700000
opls_521-85    C    0.04965992    0.91604012    0.44346990    0.47300000
opls_522-86    C    0.93019984    0.09299999    0.49308999    -0.44700000
opls_523-87    C    0.93582994    0.13650015    0.51700981    0.22700000
opls_145-88    C    0.91876001    0.14156997    0.56358985    -0.11500000
opls_145-89    C    0.89536984    0.10315992    0.58641015    -0.11500000
opls_145-90    C    0.88662002    0.06102009    0.56077001    -0.11500000
opls_523-91    C    0.90386000    0.05594989    0.51428993    0.22700000
opls_145-92    C    0.40142007    0.60817995    0.78287989    -0.11500000
opls_145-93    C    0.40819987    0.65522990    0.76676011    -0.11500000
opls_145-94    C    0.39683012    0.66768997    0.72030990    -0.11500000
opls_145-95    C    0.37937989    0.63313993    0.68844987    -0.11500000
opls_145-96    C    0.37251009    0.58573995    0.70443982    -0.11500000
opls_145-97    C    0.38272019    0.57360004    0.75202019    -0.11500000
opls_142-98    C    0.86666016    0.60822016    0.36791018    -0.11500000
opls_523-99    C    0.01132992    0.02245992    0.68816992    0.22700000
opls_522-100    C    0.02295013    0.04500984    0.64472989    -0.44700000
opls_521-101    C    0.01139004    0.02250013    0.60117994    0.47300000
opls_523-102    C    0.04660991    0.08922003    0.64326003    0.22700000
opls_522-103    C    0.06058005    0.10851008    0.59910001    -0.44700000
opls_521-104    C    0.04965992    0.08395988    0.55653010    0.47300000
opls_522-105    C    0.93019984    0.90700001    0.50691001    -0.44700000
opls_523-106    C    0.93582994    0.86349985    0.48299019    0.22700000
opls_145-107    C    0.91876001    0.85843003    0.43641015    -0.11500000
opls_145-108    C    0.89536984    0.89684008    0.41358985    -0.11500000
opls_145-109    C    0.88662002    0.93897991    0.43922999    -0.11500000
opls_523-110    C    0.90386000    0.94405011    0.48571007    0.22700000
opls_145-111    C    0.40142007    0.39182005    0.21712011    -0.11500000
opls_145-112    C    0.40819987    0.34477010    0.23323989    -0.11500000
opls_145-113    C    0.39683012    0.33231003    0.27969010    -0.11500000
opls_145-114    C    0.37937989    0.36686007    0.31155013    -0.11500000
opls_145-115    C    0.37251009    0.41426005    0.29556018    -0.11500000
opls_145-116    C    0.38272019    0.42639996    0.24797981    -0.11500000
opls_142-117    C    0.86666016    0.39177984    0.63208982    -0.11500000
opls_523-118    C    0.98867008    0.02245992    0.31183008    0.22700000
opls_522-119    C    0.97704987    0.04500984    0.35527011    -0.44700000
opls_521-120    C    0.98860996    0.02250013    0.39882006    0.47300000
opls_523-121    C    0.95339009    0.08922003    0.35673997    0.22700000
opls_522-122    C    0.93941995    0.10851008    0.40089999    -0.44700000
opls_521-123    C    0.95034008    0.08395988    0.44346990    0.47300000
opls_522-124    C    0.06980016    0.90700001    0.49308999    -0.44700000
opls_523-125    C    0.06417006    0.86349985    0.51700981    0.22700000
opls_145-126    C    0.08123999    0.85843003    0.56358985    -0.11500000
opls_145-127    C    0.10463016    0.89684008    0.58641015    -0.11500000
opls_145-128    C    0.11337998    0.93897991    0.56077001    -0.11500000
opls_523-129    C    0.09614000    0.94405011    0.51428993    0.22700000
opls_145-130    C    0.59857993    0.39182005    0.78287989    -0.11500000
opls_145-131    C    0.59180013    0.34477010    0.76676011    -0.11500000
opls_145-132    C    0.60316988    0.33231003    0.72030990    -0.11500000
opls_145-133    C    0.62062011    0.36686007    0.68844987    -0.11500000
opls_145-134    C    0.62748991    0.41426005    0.70443982    -0.11500000
opls_145-135    C    0.61727981    0.42639996    0.75202019    -0.11500000
opls_142-136    C    0.13333984    0.39177984    0.36791018    -0.11500000
opls_523-137    C    0.98867008    0.97754008    0.68816992    0.22700000
opls_522-138    C    0.97704987    0.95499016    0.64472989    -0.44700000
opls_521-139    C    0.98860996    0.97749987    0.60117994    0.47300000
opls_523-140    C    0.95339009    0.91077997    0.64326003    0.22700000
opls_522-141    C    0.93941995    0.89148992    0.59910001    -0.44700000
opls_521-142    C    0.95034008    0.91604012    0.55653010    0.47300000
opls_522-143    C    0.06980016    0.09299999    0.50691001    -0.44700000
opls_523-144    C    0.06417006    0.13650015    0.48299019    0.22700000
opls_145-145    C    0.08123999    0.14156997    0.43641015    -0.11500000
opls_145-146    C    0.10463016    0.10315992    0.41358985    -0.11500000
opls_145-147    C    0.11337998    0.06102009    0.43922999    -0.11500000
opls_523-148    C    0.09614000    0.05594989    0.48571007    0.22700000
opls_145-149    C    0.59857993    0.60817995    0.21712011    -0.11500000
opls_145-150    C    0.59180013    0.65522990    0.23323989    -0.11500000
opls_145-151    C    0.60316988    0.66768997    0.27969010    -0.11500000
opls_145-152    C    0.62062011    0.63313993    0.31155013    -0.11500000
opls_145-153    C    0.62748991    0.58573995    0.29556018    -0.11500000
opls_145-154    C    0.61727981    0.57360004    0.24797981    -0.11500000
opls_142-155    C    0.13333984    0.60822016    0.63208982    -0.11500000
opls_523-156    C    0.31183008    0.98867008    0.02245992    0.22700000
opls_522-157    C    0.35527011    0.97704987    0.04500984    -0.44700000
opls_521-158    C    0.39882006    0.98860996    0.02250013    0.47300000
opls_523-159    C    0.35673997    0.95339009    0.08922003    0.22700000
opls_522-160    C    0.40089999    0.93941995    0.10851008    -0.44700000
opls_521-161    C    0.44346990    0.95034008    0.08395988    0.47300000
opls_522-162    C    0.49308999    0.06980016    0.90700001    -0.44700000
opls_523-163    C    0.51700981    0.06417006    0.86349985    0.22700000
opls_145-164    C    0.56358985    0.08123999    0.85843003    -0.11500000
opls_145-165    C    0.58641015    0.10463016    0.89684008    -0.11500000
opls_145-166    C    0.56077001    0.11337998    0.93897991    -0.11500000
opls_523-167    C    0.51428993    0.09614000    0.94405011    0.22700000
opls_145-168    C    0.78287989    0.59857993    0.39182005    -0.11500000
opls_145-169    C    0.76676011    0.59180013    0.34477010    -0.11500000
opls_145-170    C    0.72030990    0.60316988    0.33231003    -0.11500000
opls_145-171    C    0.68844987    0.62062011    0.36686007    -0.11500000
opls_145-172    C    0.70443982    0.62748991    0.41426005    -0.11500000
opls_145-173    C    0.75202019    0.61727981    0.42639996    -0.11500000
opls_142-174    C    0.36791018    0.13333984    0.39177984    -0.11500000
opls_523-175    C    0.68816992    0.98867008    0.97754008    0.22700000
opls_522-176    C    0.64472989    0.97704987    0.95499016    -0.44700000
opls_521-177    C    0.60117994    0.98860996    0.97749987    0.47300000
opls_523-178    C    0.64326003    0.95339009    0.91077997    0.22700000
opls_522-179    C    0.59910001    0.93941995    0.89148992    -0.44700000
opls_521-180    C    0.55653010    0.95034008    0.91604012    0.47300000
opls_522-181    C    0.50691001    0.06980016    0.09299999    -0.44700000
opls_523-182    C    0.48299019    0.06417006    0.13650015    0.22700000
opls_145-183    C    0.43641015    0.08123999    0.14156997    -0.11500000
opls_145-184    C    0.41358985    0.10463016    0.10315992    -0.11500000
opls_145-185    C    0.43922999    0.11337998    0.06102009    -0.11500000
opls_523-186    C    0.48571007    0.09614000    0.05594989    0.22700000
opls_145-187    C    0.21712011    0.59857993    0.60817995    -0.11500000
opls_145-188    C    0.23323989    0.59180013    0.65522990    -0.11500000
opls_145-189    C    0.27969010    0.60316988    0.66768997    -0.11500000
opls_145-190    C    0.31155013    0.62062011    0.63313993    -0.11500000
opls_145-191    C    0.29556018    0.62748991    0.58573995    -0.11500000
opls_145-192    C    0.24797981    0.61727981    0.57360004    -0.11500000
opls_142-193    C    0.63208982    0.13333984    0.60822016    -0.11500000
opls_523-194    C    0.31183008    0.01132992    0.97754008    0.22700000
opls_522-195    C    0.35527011    0.02295013    0.95499016    -0.44700000
opls_521-196    C    0.39882006    0.01139004    0.97749987    0.47300000
opls_523-197    C    0.35673997    0.04660991    0.91077997    0.22700000
opls_522-198    C    0.40089999    0.06058005    0.89148992    -0.44700000
opls_521-199    C    0.44346990    0.04965992    0.91604012    0.47300000
opls_522-200    C    0.49308999    0.93019984    0.09299999    -0.44700000
opls_523-201    C    0.51700981    0.93582994    0.13650015    0.22700000
opls_145-202    C    0.56358985    0.91876001    0.14156997    -0.11500000
opls_145-203    C    0.58641015    0.89536984    0.10315992    -0.11500000
opls_145-204    C    0.56077001    0.88662002    0.06102009    -0.11500000
opls_523-205    C    0.51428993    0.90386000    0.05594989    0.22700000
opls_145-206    C    0.78287989    0.40142007    0.60817995    -0.11500000
opls_145-207    C    0.76676011    0.40819987    0.65522990    -0.11500000
opls_145-208    C    0.72030990    0.39683012    0.66768997    -0.11500000
opls_145-209    C    0.68844987    0.37937989    0.63313993    -0.11500000
opls_145-210    C    0.70443982    0.37251009    0.58573995    -0.11500000
opls_145-211    C    0.75202019    0.38272019    0.57360004    -0.11500000
opls_142-212    C    0.36791018    0.86666016    0.60822016    -0.11500000
opls_523-213    C    0.68816992    0.01132992    0.02245992    0.22700000
opls_522-214    C    0.64472989    0.02295013    0.04500984    -0.44700000
opls_521-215    C    0.60117994    0.01139004    0.02250013    0.47300000
opls_523-216    C    0.64326003    0.04660991    0.08922003    0.22700000
opls_522-217    C    0.59910001    0.06058005    0.10851008    -0.44700000
opls_521-218    C    0.55653010    0.04965992    0.08395988    0.47300000
opls_522-219    C    0.50691001    0.93019984    0.90700001    -0.44700000
opls_523-220    C    0.48299019    0.93582994    0.86349985    0.22700000
opls_145-221    C    0.43641015    0.91876001    0.85843003    -0.11500000
opls_145-222    C    0.41358985    0.89536984    0.89684008    -0.11500000
opls_145-223    C    0.43922999    0.88662002    0.93897991    -0.11500000
opls_523-224    C    0.48571007    0.90386000    0.94405011    0.22700000
opls_145-225    C    0.21712011    0.40142007    0.39182005    -0.11500000
opls_145-226    C    0.23323989    0.40819987    0.34477010    -0.11500000
opls_145-227    C    0.27969010    0.39683012    0.33231003    -0.11500000
opls_145-228    C    0.31155013    0.37937989    0.36686007    -0.11500000
opls_145-229    C    0.29556018    0.37251009    0.41426005    -0.11500000
opls_145-230    C    0.24797981    0.38272019    0.42639996    -0.11500000
opls_142-231    C    0.63208982    0.86666016    0.39177984    -0.11500000
opls_523-232    C    0.81183008    0.47754008    0.48867008    0.22700000
opls_522-233    C    0.85527011    0.45499016    0.47704987    -0.44700000
opls_521-234    C    0.89882006    0.47749987    0.48860996    0.47300000
opls_523-235    C    0.85673997    0.41077997    0.45339009    0.22700000
opls_522-236    C    0.90089999    0.39148992    0.43941995    -0.44700000
opls_521-237    C    0.94346990    0.41604012    0.45034008    0.47300000
opls_522-238    C    0.99308999    0.59299999    0.56980016    -0.44700000
opls_523-239    C    0.01700981    0.63650015    0.56417006    0.22700000
opls_145-240    C    0.06358985    0.64156997    0.58123999    -0.11500000
opls_145-241    C    0.08641015    0.60315992    0.60463016    -0.11500000
opls_145-242    C    0.06077001    0.56102009    0.61337998    -0.11500000
opls_523-243    C    0.01428993    0.55594989    0.59614000    0.22700000
opls_145-244    C    0.28287989    0.10817995    0.09857993    -0.11500000
opls_145-245    C    0.26676011    0.15522990    0.09180013    -0.11500000
opls_145-246    C    0.22030990    0.16768997    0.10316988    -0.11500000
opls_145-247    C    0.18844987    0.13313993    0.12062011    -0.11500000
opls_145-248    C    0.20443982    0.08573995    0.12748991    -0.11500000
opls_145-249    C    0.25202019    0.07360004    0.11727981    -0.11500000
opls_142-250    C    0.86791018    0.10822016    0.63333984    -0.11500000
opls_139-251    C    0.63206990    0.63206990    0.36793010    0.00000000
opls_523-252    C    0.18816992    0.52245992    0.48867008    0.22700000
opls_522-253    C    0.14472989    0.54500984    0.47704987    -0.44700000
opls_521-254    C    0.10117994    0.52250013    0.48860996    0.47300000
opls_523-255    C    0.14326003    0.58922003    0.45339009    0.22700000
opls_522-256    C    0.09910001    0.60851008    0.43941995    -0.44700000
opls_521-257    C    0.05653010    0.58395988    0.45034008    0.47300000
opls_522-258    C    0.00691001    0.40700001    0.56980016    -0.44700000
opls_523-259    C    0.98299019    0.36349985    0.56417006    0.22700000
opls_145-260    C    0.93641015    0.35843003    0.58123999    -0.11500000
opls_145-261    C    0.91358985    0.39684008    0.60463016    -0.11500000
opls_145-262    C    0.93922999    0.43897991    0.61337998    -0.11500000
opls_523-263    C    0.98571007    0.44405011    0.59614000    0.22700000
opls_145-264    C    0.71712011    0.89182005    0.09857993    -0.11500000
opls_145-265    C    0.73323989    0.84477010    0.09180013    -0.11500000
opls_145-266    C    0.77969010    0.83231003    0.10316988    -0.11500000
opls_145-267    C    0.81155013    0.86686007    0.12062011    -0.11500000
opls_145-268    C    0.79556018    0.91426005    0.12748991    -0.11500000
opls_145-269    C    0.74797981    0.92639996    0.11727981    -0.11500000
opls_142-270    C    0.13208982    0.89177984    0.63333984    -0.11500000
opls_139-271    C    0.36793010    0.36793010    0.36793010    0.00000000
opls_523-272    C    0.81183008    0.52245992    0.51132992    0.22700000
opls_522-273    C    0.85527011    0.54500984    0.52295013    -0.44700000
opls_521-274    C    0.89882006    0.52250013    0.51139004    0.47300000
opls_523-275    C    0.85673997    0.58922003    0.54660991    0.22700000
opls_522-276    C    0.90089999    0.60851008    0.56058005    -0.44700000
opls_521-277    C    0.94346990    0.58395988    0.54965992    0.47300000
opls_522-278    C    0.99308999    0.40700001    0.43019984    -0.44700000
opls_523-279    C    0.01700981    0.36349985    0.43582994    0.22700000
opls_145-280    C    0.06358985    0.35843003    0.41876001    -0.11500000
opls_145-281    C    0.08641015    0.39684008    0.39536984    -0.11500000
opls_145-282    C    0.06077001    0.43897991    0.38662002    -0.11500000
opls_523-283    C    0.01428993    0.44405011    0.40386000    0.22700000
opls_145-284    C    0.28287989    0.89182005    0.90142007    -0.11500000
opls_145-285    C    0.26676011    0.84477010    0.90819987    -0.11500000
opls_145-286    C    0.22030990    0.83231003    0.89683012    -0.11500000
opls_145-287    C    0.18844987    0.86686007    0.87937989    -0.11500000
opls_145-288    C    0.20443982    0.91426005    0.87251009    -0.11500000
opls_145-289    C    0.25202019    0.92639996    0.88272019    -0.11500000
opls_142-290    C    0.86791018    0.89177984    0.36666016    -0.11500000
opls_139-291    C    0.63206990    0.36793010    0.63206990    0.00000000
opls_523-292    C    0.18816992    0.47754008    0.51132992    0.22700000
opls_522-293    C    0.14472989    0.45499016    0.52295013    -0.44700000
opls_521-294    C    0.10117994    0.47749987    0.51139004    0.47300000
opls_523-295    C    0.14326003    0.41077997    0.54660991    0.22700000
opls_522-296    C    0.09910001    0.39148992    0.56058005    -0.44700000
opls_521-297    C    0.05653010    0.41604012    0.54965992    0.47300000
opls_522-298    C    0.00691001    0.59299999    0.43019984    -0.44700000
opls_523-299    C    0.98299019    0.63650015    0.43582994    0.22700000
opls_145-300    C    0.93641015    0.64156997    0.41876001    -0.11500000
opls_145-301    C    0.91358985    0.60315992    0.39536984    -0.11500000
opls_145-302    C    0.93922999    0.56102009    0.38662002    -0.11500000
opls_523-303    C    0.98571007    0.55594989    0.40386000    0.22700000
opls_145-304    C    0.71712011    0.10817995    0.90142007    -0.11500000
opls_145-305    C    0.73323989    0.15522990    0.90819987    -0.11500000
opls_145-306    C    0.77969010    0.16768997    0.89683012    -0.11500000
opls_145-307    C    0.81155013    0.13313993    0.87937989    -0.11500000
opls_145-308    C    0.79556018    0.08573995    0.87251009    -0.11500000
opls_145-309    C    0.74797981    0.07360004    0.88272019    -0.11500000
opls_142-310    C    0.13208982    0.10822016    0.36666016    -0.11500000
opls_139-311    C    0.36793010    0.63206990    0.63206990    0.00000000
opls_523-312    C    0.47754008    0.51132992    0.18816992    0.22700000
opls_522-313    C    0.45499016    0.52295013    0.14472989    -0.44700000
opls_521-314    C    0.47749987    0.51139004    0.10117994    0.47300000
opls_523-315    C    0.41077997    0.54660991    0.14326003    0.22700000
opls_522-316    C    0.39148992    0.56058005    0.09910001    -0.44700000
opls_521-317    C    0.41604012    0.54965992    0.05653010    0.47300000
opls_522-318    C    0.59299999    0.43019984    0.00691001    -0.44700000
opls_523-319    C    0.63650015    0.43582994    0.98299019    0.22700000
opls_145-320    C    0.64156997    0.41876001    0.93641015    -0.11500000
opls_145-321    C    0.60315992    0.39536984    0.91358985    -0.11500000
opls_145-322    C    0.56102009    0.38662002    0.93922999    -0.11500000
opls_523-323    C    0.55594989    0.40386000    0.98571007    0.22700000
opls_145-324    C    0.10817995    0.90142007    0.71712011    -0.11500000
opls_145-325    C    0.15522990    0.90819987    0.73323989    -0.11500000
opls_145-326    C    0.16768997    0.89683012    0.77969010    -0.11500000
opls_145-327    C    0.13313993    0.87937989    0.81155013    -0.11500000
opls_145-328    C    0.08573995    0.87251009    0.79556018    -0.11500000
opls_145-329    C    0.07360004    0.88272019    0.74797981    -0.11500000
opls_142-330    C    0.10822016    0.36666016    0.13208982    -0.11500000
opls_523-331    C    0.52245992    0.51132992    0.81183008    0.22700000
opls_522-332    C    0.54500984    0.52295013    0.85527011    -0.44700000
opls_521-333    C    0.52250013    0.51139004    0.89882006    0.47300000
opls_523-334    C    0.58922003    0.54660991    0.85673997    0.22700000
opls_522-335    C    0.60851008    0.56058005    0.90089999    -0.44700000
opls_521-336    C    0.58395988    0.54965992    0.94346990    0.47300000
opls_522-337    C    0.40700001    0.43019984    0.99308999    -0.44700000
opls_523-338    C    0.36349985    0.43582994    0.01700981    0.22700000
opls_145-339    C    0.35843003    0.41876001    0.06358985    -0.11500000
opls_145-340    C    0.39684008    0.39536984    0.08641015    -0.11500000
opls_145-341    C    0.43897991    0.38662002    0.06077001    -0.11500000
opls_523-342    C    0.44405011    0.40386000    0.01428993    0.22700000
opls_145-343    C    0.89182005    0.90142007    0.28287989    -0.11500000
opls_145-344    C    0.84477010    0.90819987    0.26676011    -0.11500000
opls_145-345    C    0.83231003    0.89683012    0.22030990    -0.11500000
opls_145-346    C    0.86686007    0.87937989    0.18844987    -0.11500000
opls_145-347    C    0.91426005    0.87251009    0.20443982    -0.11500000
opls_145-348    C    0.92639996    0.88272019    0.25202019    -0.11500000
opls_142-349    C    0.89177984    0.36666016    0.86791018    -0.11500000
opls_523-350    C    0.52245992    0.48867008    0.18816992    0.22700000
opls_522-351    C    0.54500984    0.47704987    0.14472989    -0.44700000
opls_521-352    C    0.52250013    0.48860996    0.10117994    0.47300000
opls_523-353    C    0.58922003    0.45339009    0.14326003    0.22700000
opls_522-354    C    0.60851008    0.43941995    0.09910001    -0.44700000
opls_521-355    C    0.58395988    0.45034008    0.05653010    0.47300000
opls_522-356    C    0.40700001    0.56980016    0.00691001    -0.44700000
opls_523-357    C    0.36349985    0.56417006    0.98299019    0.22700000
opls_145-358    C    0.35843003    0.58123999    0.93641015    -0.11500000
opls_145-359    C    0.39684008    0.60463016    0.91358985    -0.11500000
opls_145-360    C    0.43897991    0.61337998    0.93922999    -0.11500000
opls_523-361    C    0.44405011    0.59614000    0.98571007    0.22700000
opls_145-362    C    0.89182005    0.09857993    0.71712011    -0.11500000
opls_145-363    C    0.84477010    0.09180013    0.73323989    -0.11500000
opls_145-364    C    0.83231003    0.10316988    0.77969010    -0.11500000
opls_145-365    C    0.86686007    0.12062011    0.81155013    -0.11500000
opls_145-366    C    0.91426005    0.12748991    0.79556018    -0.11500000
opls_145-367    C    0.92639996    0.11727981    0.74797981    -0.11500000
opls_142-368    C    0.89177984    0.63333984    0.13208982    -0.11500000
opls_523-369    C    0.47754008    0.48867008    0.81183008    0.22700000
opls_522-370    C    0.45499016    0.47704987    0.85527011    -0.44700000
opls_521-371    C    0.47749987    0.48860996    0.89882006    0.47300000
opls_523-372    C    0.41077997    0.45339009    0.85673997    0.22700000
opls_522-373    C    0.39148992    0.43941995    0.90089999    -0.44700000
opls_521-374    C    0.41604012    0.45034008    0.94346990    0.47300000
opls_522-375    C    0.59299999    0.56980016    0.99308999    -0.44700000
opls_523-376    C    0.63650015    0.56417006    0.01700981    0.22700000
opls_145-377    C    0.64156997    0.58123999    0.06358985    -0.11500000
opls_145-378    C    0.60315992    0.60463016    0.08641015    -0.11500000
opls_145-379    C    0.56102009    0.61337998    0.06077001    -0.11500000
opls_523-380    C    0.55594989    0.59614000    0.01428993    0.22700000
opls_145-381    C    0.10817995    0.09857993    0.28287989    -0.11500000
opls_145-382    C    0.15522990    0.09180013    0.26676011    -0.11500000
opls_145-383    C    0.16768997    0.10316988    0.22030990    -0.11500000
opls_145-384    C    0.13313993    0.12062011    0.18844987    -0.11500000
opls_145-385    C    0.08573995    0.12748991    0.20443982    -0.11500000
opls_145-386    C    0.07360004    0.11727981    0.25202019    -0.11500000
opls_142-387    C    0.10822016    0.63333984    0.86791018    -0.11500000
opls_523-388    C    0.48867008    0.81183008    0.47754008    0.22700000
opls_522-389    C    0.47704987    0.85527011    0.45499016    -0.44700000
opls_521-390    C    0.48860996    0.89882006    0.47749987    0.47300000
opls_523-391    C    0.45339009    0.85673997    0.41077997    0.22700000
opls_522-392    C    0.43941995    0.90089999    0.39148992    -0.44700000
opls_521-393    C    0.45034008    0.94346990    0.41604012    0.47300000
opls_522-394    C    0.56980016    0.99308999    0.59299999    -0.44700000
opls_523-395    C    0.56417006    0.01700981    0.63650015    0.22700000
opls_145-396    C    0.58123999    0.06358985    0.64156997    -0.11500000
opls_145-397    C    0.60463016    0.08641015    0.60315992    -0.11500000
opls_145-398    C    0.61337998    0.06077001    0.56102009    -0.11500000
opls_523-399    C    0.59614000    0.01428993    0.55594989    0.22700000
opls_145-400    C    0.09857993    0.28287989    0.10817995    -0.11500000
opls_145-401    C    0.09180013    0.26676011    0.15522990    -0.11500000
opls_145-402    C    0.10316988    0.22030990    0.16768997    -0.11500000
opls_145-403    C    0.12062011    0.18844987    0.13313993    -0.11500000
opls_145-404    C    0.12748991    0.20443982    0.08573995    -0.11500000
opls_145-405    C    0.11727981    0.25202019    0.07360004    -0.11500000
opls_142-406    C    0.63333984    0.86791018    0.10822016    -0.11500000
opls_523-407    C    0.48867008    0.18816992    0.52245992    0.22700000
opls_522-408    C    0.47704987    0.14472989    0.54500984    -0.44700000
opls_521-409    C    0.48860996    0.10117994    0.52250013    0.47300000
opls_523-410    C    0.45339009    0.14326003    0.58922003    0.22700000
opls_522-411    C    0.43941995    0.09910001    0.60851008    -0.44700000
opls_521-412    C    0.45034008    0.05653010    0.58395988    0.47300000
opls_522-413    C    0.56980016    0.00691001    0.40700001    -0.44700000
opls_523-414    C    0.56417006    0.98299019    0.36349985    0.22700000
opls_145-415    C    0.58123999    0.93641015    0.35843003    -0.11500000
opls_145-416    C    0.60463016    0.91358985    0.39684008    -0.11500000
opls_145-417    C    0.61337998    0.93922999    0.43897991    -0.11500000
opls_523-418    C    0.59614000    0.98571007    0.44405011    0.22700000
opls_145-419    C    0.09857993    0.71712011    0.89182005    -0.11500000
opls_145-420    C    0.09180013    0.73323989    0.84477010    -0.11500000
opls_145-421    C    0.10316988    0.77969010    0.83231003    -0.11500000
opls_145-422    C    0.12062011    0.81155013    0.86686007    -0.11500000
opls_145-423    C    0.12748991    0.79556018    0.91426005    -0.11500000
opls_145-424    C    0.11727981    0.74797981    0.92639996    -0.11500000
opls_142-425    C    0.63333984    0.13208982    0.89177984    -0.11500000
opls_523-426    C    0.51132992    0.81183008    0.52245992    0.22700000
opls_522-427    C    0.52295013    0.85527011    0.54500984    -0.44700000
opls_521-428    C    0.51139004    0.89882006    0.52250013    0.47300000
opls_523-429    C    0.54660991    0.85673997    0.58922003    0.22700000
opls_522-430    C    0.56058005    0.90089999    0.60851008    -0.44700000
opls_521-431    C    0.54965992    0.94346990    0.58395988    0.47300000
opls_522-432    C    0.43019984    0.99308999    0.40700001    -0.44700000
opls_523-433    C    0.43582994    0.01700981    0.36349985    0.22700000
opls_145-434    C    0.41876001    0.06358985    0.35843003    -0.11500000
opls_145-435    C    0.39536984    0.08641015    0.39684008    -0.11500000
opls_145-436    C    0.38662002    0.06077001    0.43897991    -0.11500000
opls_523-437    C    0.40386000    0.01428993    0.44405011    0.22700000
opls_145-438    C    0.90142007    0.28287989    0.89182005    -0.11500000
opls_145-439    C    0.90819987    0.26676011    0.84477010    -0.11500000
opls_145-440    C    0.89683012    0.22030990    0.83231003    -0.11500000
opls_145-441    C    0.87937989    0.18844987    0.86686007    -0.11500000
opls_145-442    C    0.87251009    0.20443982    0.91426005    -0.11500000
opls_145-443    C    0.88272019    0.25202019    0.92639996    -0.11500000
opls_142-444    C    0.36666016    0.86791018    0.89177984    -0.11500000
opls_523-445    C    0.51132992    0.18816992    0.47754008    0.22700000
opls_522-446    C    0.52295013    0.14472989    0.45499016    -0.44700000
opls_521-447    C    0.51139004    0.10117994    0.47749987    0.47300000
opls_523-448    C    0.54660991    0.14326003    0.41077997    0.22700000
opls_522-449    C    0.56058005    0.09910001    0.39148992    -0.44700000
opls_521-450    C    0.54965992    0.05653010    0.41604012    0.47300000
opls_522-451    C    0.43019984    0.00691001    0.59299999    -0.44700000
opls_523-452    C    0.43582994    0.98299019    0.63650015    0.22700000
opls_145-453    C    0.41876001    0.93641015    0.64156997    -0.11500000
opls_145-454    C    0.39536984    0.91358985    0.60315992    -0.11500000
opls_145-455    C    0.38662002    0.93922999    0.56102009    -0.11500000
opls_523-456    C    0.40386000    0.98571007    0.55594989    0.22700000
opls_145-457    C    0.90142007    0.71712011    0.10817995    -0.11500000
opls_145-458    C    0.90819987    0.73323989    0.15522990    -0.11500000
opls_145-459    C    0.89683012    0.77969010    0.16768997    -0.11500000
opls_145-460    C    0.87937989    0.81155013    0.13313993    -0.11500000
opls_145-461    C    0.87251009    0.79556018    0.08573995    -0.11500000
opls_145-462    C    0.88272019    0.74797981    0.07360004    -0.11500000
opls_142-463    C    0.36666016    0.13208982    0.10822016    -0.11500000
opls_239-464    N    0.95669018    0.44135014    0.02324004    -0.14000000
opls_750-465    N    0.59424006    0.83437005    0.41578008    -0.78500000
opls_239-466    N    0.04330982    0.55864986    0.02324004    -0.14000000
opls_750-467    N    0.40575994    0.16562995    0.41578008    -0.78500000
opls_239-468    N    0.04330982    0.44135014    0.97675996    -0.14000000
opls_750-469    N    0.40575994    0.83437005    0.58421992    -0.78500000
opls_239-470    N    0.95669018    0.55864986    0.97675996    -0.14000000
opls_750-471    N    0.59424006    0.16562995    0.58421992    -0.78500000
opls_239-472    N    0.02324004    0.95669018    0.44135014    -0.14000000
opls_750-473    N    0.41578008    0.59424006    0.83437005    -0.78500000
opls_239-474    N    0.02324004    0.04330982    0.55864986    -0.14000000
opls_750-475    N    0.41578008    0.40575994    0.16562995    -0.78500000
opls_239-476    N    0.97675996    0.04330982    0.44135014    -0.14000000
opls_750-477    N    0.58421992    0.40575994    0.83437005    -0.78500000
opls_239-478    N    0.97675996    0.95669018    0.55864986    -0.14000000
opls_750-479    N    0.58421992    0.59424006    0.16562995    -0.78500000
opls_239-480    N    0.44135014    0.97675996    0.04330982    -0.14000000
opls_750-481    N    0.83437005    0.58421992    0.40575994    -0.78500000
opls_239-482    N    0.55864986    0.97675996    0.95669018    -0.14000000
opls_750-483    N    0.16562995    0.58421992    0.59424006    -0.78500000
opls_239-484    N    0.44135014    0.02324004    0.95669018    -0.14000000
opls_750-485    N    0.83437005    0.41578008    0.59424006    -0.78500000
opls_239-486    N    0.55864986    0.02324004    0.04330982    -0.14000000
opls_750-487    N    0.16562995    0.41578008    0.40575994    -0.78500000
opls_239-488    N    0.94135014    0.45669018    0.47675996    -0.14000000
opls_750-489    N    0.33437005    0.09424006    0.08421992    -0.78500000
opls_239-490    N    0.05864986    0.54330982    0.47675996    -0.14000000
opls_750-491    N    0.66562995    0.90575994    0.08421992    -0.78500000
opls_239-492    N    0.94135014    0.54330982    0.52324004    -0.14000000
opls_750-493    N    0.33437005    0.90575994    0.91578008    -0.78500000
opls_239-494    N    0.05864986    0.45669018    0.52324004    -0.14000000
opls_750-495    N    0.66562995    0.09424006    0.91578008    -0.78500000
opls_239-496    N    0.45669018    0.52324004    0.05864986    -0.14000000
opls_750-497    N    0.09424006    0.91578008    0.66562995    -0.78500000
opls_239-498    N    0.54330982    0.52324004    0.94135014    -0.14000000
opls_750-499    N    0.90575994    0.91578008    0.33437005    -0.78500000
opls_239-500    N    0.54330982    0.47675996    0.05864986    -0.14000000
opls_750-501    N    0.90575994    0.08421992    0.66562995    -0.78500000
opls_239-502    N    0.45669018    0.47675996    0.94135014    -0.14000000
opls_750-503    N    0.09424006    0.08421992    0.33437005    -0.78500000
opls_239-504    N    0.47675996    0.94135014    0.45669018    -0.14000000
opls_750-505    N    0.08421992    0.33437005    0.09424006    -0.78500000
opls_239-506    N    0.47675996    0.05864986    0.54330982    -0.14000000
opls_750-507    N    0.08421992    0.66562995    0.90575994    -0.78500000
opls_239-508    N    0.52324004    0.94135014    0.54330982    -0.14000000
opls_750-509    N    0.91578008    0.33437005    0.90575994    -0.78500000
opls_239-510    N    0.52324004    0.05864986    0.45669018    -0.14000000
opls_750-511    N    0.91578008    0.66562995    0.09424006    -0.78500000
opls_526-512    H    0.04066002    0.27629005    0.97969010    0.06500000
opls_526-513    H    0.89063015    0.32207005    0.05440995    0.06500000
opls_525-514    H    0.85598015    0.40222010    0.08075017    0.15500000
opls_526-515    H    0.16777997    0.49840989    0.95438008    0.06500000
opls_146-516    H    0.17693996    0.58341989    0.92369999    0.11500000
opls_146-517    H    0.03070996    0.57795982    0.86531017    0.11500000
opls_526-518    H    0.02160014    0.49344999    0.89651991    0.06500000
opls_146-519    H    0.68354014    0.79210000    0.42318987    0.11500000
opls_146-520    H    0.70627006    0.70775983    0.40164985    0.11500000
opls_146-521    H    0.55727000    0.67863002    0.35864986    0.11500000
opls_146-522    H    0.53569016    0.76560008    0.37584005    0.11500000
opls_144-523    H    0.85861999    0.64440015    0.15825004    0.11500000
opls_526-524    H    0.95933998    0.72370995    0.97969010    0.06500000
opls_526-525    H    0.10936985    0.67792995    0.05440995    0.06500000
opls_525-526    H    0.14401985    0.59777990    0.08075017    0.15500000
opls_526-527    H    0.83222003    0.50159011    0.95438008    0.06500000
opls_146-528    H    0.82306004    0.41658011    0.92369999    0.11500000
opls_146-529    H    0.96929004    0.42204018    0.86531017    0.11500000
opls_526-530    H    0.97839986    0.50655001    0.89651991    0.06500000
opls_146-531    H    0.31645986    0.20790000    0.42318987    0.11500000
opls_146-532    H    0.29372994    0.29224017    0.40164985    0.11500000
opls_146-533    H    0.44273000    0.32136998    0.35864986    0.11500000
opls_146-534    H    0.46430984    0.23439992    0.37584005    0.11500000
opls_144-535    H    0.14138001    0.35559985    0.15825004    0.11500000
opls_526-536    H    0.95933998    0.27629005    0.02030990    0.06500000
opls_526-537    H    0.10936985    0.32207005    0.94559005    0.06500000
opls_525-538    H    0.14401985    0.40222010    0.91924983    0.15500000
opls_526-539    H    0.83222003    0.49840989    0.04561992    0.06500000
opls_146-540    H    0.82306004    0.58341989    0.07630001    0.11500000
opls_146-541    H    0.96929004    0.57795982    0.13468983    0.11500000
opls_526-542    H    0.97839986    0.49344999    0.10348009    0.06500000
opls_146-543    H    0.31645986    0.79210000    0.57681013    0.11500000
opls_146-544    H    0.29372994    0.70775983    0.59835015    0.11500000
opls_146-545    H    0.44273000    0.67863002    0.64135014    0.11500000
opls_146-546    H    0.46430984    0.76560008    0.62415995    0.11500000
opls_144-547    H    0.14138001    0.64440015    0.84174996    0.11500000
opls_526-548    H    0.04066002    0.72370995    0.02030990    0.06500000
opls_526-549    H    0.89063015    0.67792995    0.94559005    0.06500000
opls_525-550    H    0.85598015    0.59777990    0.91924983    0.15500000
opls_526-551    H    0.16777997    0.50159011    0.04561992    0.06500000
opls_146-552    H    0.17693996    0.41658011    0.07630001    0.11500000
opls_146-553    H    0.03070996    0.42204018    0.13468983    0.11500000
opls_526-554    H    0.02160014    0.50655001    0.10348009    0.06500000
opls_146-555    H    0.68354014    0.20790000    0.57681013    0.11500000
opls_146-556    H    0.70627006    0.29224017    0.59835015    0.11500000
opls_146-557    H    0.55727000    0.32136998    0.64135014    0.11500000
opls_146-558    H    0.53569016    0.23439992    0.62415995    0.11500000
opls_144-559    H    0.85861999    0.35559985    0.84174996    0.11500000
opls_526-560    H    0.97969010    0.04066002    0.27629005    0.06500000
opls_526-561    H    0.05440995    0.89063015    0.32207005    0.06500000
opls_525-562    H    0.08075017    0.85598015    0.40222010    0.15500000
opls_526-563    H    0.95438008    0.16777997    0.49840989    0.06500000
opls_146-564    H    0.92369999    0.17693996    0.58341989    0.11500000
opls_146-565    H    0.86531017    0.03070996    0.57795982    0.11500000
opls_526-566    H    0.89651991    0.02160014    0.49344999    0.06500000
opls_146-567    H    0.42318987    0.68354014    0.79210000    0.11500000
opls_146-568    H    0.40164985    0.70627006    0.70775983    0.11500000
opls_146-569    H    0.35864986    0.55727000    0.67863002    0.11500000
opls_146-570    H    0.37584005    0.53569016    0.76560008    0.11500000
opls_144-571    H    0.15825004    0.85861999    0.64440015    0.11500000
opls_526-572    H    0.97969010    0.95933998    0.72370995    0.06500000
opls_526-573    H    0.05440995    0.10936985    0.67792995    0.06500000
opls_525-574    H    0.08075017    0.14401985    0.59777990    0.15500000
opls_526-575    H    0.95438008    0.83222003    0.50159011    0.06500000
opls_146-576    H    0.92369999    0.82306004    0.41658011    0.11500000
opls_146-577    H    0.86531017    0.96929004    0.42204018    0.11500000
opls_526-578    H    0.89651991    0.97839986    0.50655001    0.06500000
opls_146-579    H    0.42318987    0.31645986    0.20790000    0.11500000
opls_146-580    H    0.40164985    0.29372994    0.29224017    0.11500000
opls_146-581    H    0.35864986    0.44273000    0.32136998    0.11500000
opls_146-582    H    0.37584005    0.46430984    0.23439992    0.11500000
opls_144-583    H    0.15825004    0.14138001    0.35559985    0.11500000
opls_526-584    H    0.02030990    0.95933998    0.27629005    0.06500000
opls_526-585    H    0.94559005    0.10936985    0.32207005    0.06500000
opls_525-586    H    0.91924983    0.14401985    0.40222010    0.15500000
opls_526-587    H    0.04561992    0.83222003    0.49840989    0.06500000
opls_146-588    H    0.07630001    0.82306004    0.58341989    0.11500000
opls_146-589    H    0.13468983    0.96929004    0.57795982    0.11500000
opls_526-590    H    0.10348009    0.97839986    0.49344999    0.06500000
opls_146-591    H    0.57681013    0.31645986    0.79210000    0.11500000
opls_146-592    H    0.59835015    0.29372994    0.70775983    0.11500000
opls_146-593    H    0.64135014    0.44273000    0.67863002    0.11500000
opls_146-594    H    0.62415995    0.46430984    0.76560008    0.11500000
opls_144-595    H    0.84174996    0.14138001    0.64440015    0.11500000
opls_526-596    H    0.02030990    0.04066002    0.72370995    0.06500000
opls_526-597    H    0.94559005    0.89063015    0.67792995    0.06500000
opls_525-598    H    0.91924983    0.85598015    0.59777990    0.15500000
opls_526-599    H    0.04561992    0.16777997    0.50159011    0.06500000
opls_146-600    H    0.07630001    0.17693996    0.41658011    0.11500000
opls_146-601    H    0.13468983    0.03070996    0.42204018    0.11500000
opls_526-602    H    0.10348009    0.02160014    0.50655001    0.06500000
opls_146-603    H    0.57681013    0.68354014    0.20790000    0.11500000
opls_146-604    H    0.59835015    0.70627006    0.29224017    0.11500000
opls_146-605    H    0.64135014    0.55727000    0.32136998    0.11500000
opls_146-606    H    0.62415995    0.53569016    0.23439992    0.11500000
opls_144-607    H    0.84174996    0.85861999    0.35559985    0.11500000
opls_526-608    H    0.27629005    0.02030990    0.95933998    0.06500000
opls_526-609    H    0.32207005    0.94559005    0.10936985    0.06500000
opls_525-610    H    0.40222010    0.91924983    0.14401985    0.15500000
opls_526-611    H    0.49840989    0.04561992    0.83222003    0.06500000
opls_146-612    H    0.58341989    0.07630001    0.82306004    0.11500000
opls_146-613    H    0.57795982    0.13468983    0.96929004    0.11500000
opls_526-614    H    0.49344999    0.10348009    0.97839986    0.06500000
opls_146-615    H    0.79210000    0.57681013    0.31645986    0.11500000
opls_146-616    H    0.70775983    0.59835015    0.29372994    0.11500000
opls_146-617    H    0.67863002    0.64135014    0.44273000    0.11500000
opls_146-618    H    0.76560008    0.62415995    0.46430984    0.11500000
opls_144-619    H    0.64440015    0.84174996    0.14138001    0.11500000
opls_526-620    H    0.72370995    0.02030990    0.04066002    0.06500000
opls_526-621    H    0.67792995    0.94559005    0.89063015    0.06500000
opls_525-622    H    0.59777990    0.91924983    0.85598015    0.15500000
opls_526-623    H    0.50159011    0.04561992    0.16777997    0.06500000
opls_146-624    H    0.41658011    0.07630001    0.17693996    0.11500000
opls_146-625    H    0.42204018    0.13468983    0.03070996    0.11500000
opls_526-626    H    0.50655001    0.10348009    0.02160014    0.06500000
opls_146-627    H    0.20790000    0.57681013    0.68354014    0.11500000
opls_146-628    H    0.29224017    0.59835015    0.70627006    0.11500000
opls_146-629    H    0.32136998    0.64135014    0.55727000    0.11500000
opls_146-630    H    0.23439992    0.62415995    0.53569016    0.11500000
opls_144-631    H    0.35559985    0.84174996    0.85861999    0.11500000
opls_526-632    H    0.27629005    0.97969010    0.04066002    0.06500000
opls_526-633    H    0.32207005    0.05440995    0.89063015    0.06500000
opls_525-634    H    0.40222010    0.08075017    0.85598015    0.15500000
opls_526-635    H    0.49840989    0.95438008    0.16777997    0.06500000
opls_146-636    H    0.58341989    0.92369999    0.17693996    0.11500000
opls_146-637    H    0.57795982    0.86531017    0.03070996    0.11500000
opls_526-638    H    0.49344999    0.89651991    0.02160014    0.06500000
opls_146-639    H    0.79210000    0.42318987    0.68354014    0.11500000
opls_146-640    H    0.70775983    0.40164985    0.70627006    0.11500000
opls_146-641    H    0.67863002    0.35864986    0.55727000    0.11500000
opls_146-642    H    0.76560008    0.37584005    0.53569016    0.11500000
opls_144-643    H    0.64440015    0.15825004    0.85861999    0.11500000
opls_526-644    H    0.72370995    0.97969010    0.95933998    0.06500000
opls_526-645    H    0.67792995    0.05440995    0.10936985    0.06500000
opls_525-646    H    0.59777990    0.08075017    0.14401985    0.15500000
opls_526-647    H    0.50159011    0.95438008    0.83222003    0.06500000
opls_146-648    H    0.41658011    0.92369999    0.82306004    0.11500000
opls_146-649    H    0.42204018    0.86531017    0.96929004    0.11500000
opls_526-650    H    0.50655001    0.89651991    0.97839986    0.06500000
opls_146-651    H    0.20790000    0.42318987    0.31645986    0.11500000
opls_146-652    H    0.29224017    0.40164985    0.29372994    0.11500000
opls_146-653    H    0.32136998    0.35864986    0.44273000    0.11500000
opls_146-654    H    0.23439992    0.37584005    0.46430984    0.11500000
opls_144-655    H    0.35559985    0.15825004    0.14138001    0.11500000
opls_526-656    H    0.77629005    0.54066002    0.52030990    0.06500000
opls_526-657    H    0.82207005    0.39063015    0.44559005    0.06500000
opls_525-658    H    0.90222010    0.35598015    0.41924983    0.15500000
opls_526-659    H    0.99840989    0.66777997    0.54561992    0.06500000
opls_146-660    H    0.08341989    0.67693996    0.57630001    0.11500000
opls_146-661    H    0.07795982    0.53070996    0.63468983    0.11500000
opls_526-662    H    0.99344999    0.52160014    0.60348009    0.06500000
opls_146-663    H    0.29210000    0.18354014    0.07681013    0.11500000
opls_146-664    H    0.20775983    0.20627006    0.09835015    0.11500000
opls_146-665    H    0.17863002    0.05727000    0.14135014    0.11500000
opls_146-666    H    0.26560008    0.03569016    0.12415995    0.11500000
opls_144-667    H    0.14440015    0.35861999    0.34174996    0.11500000
opls_526-668    H    0.22370995    0.45933998    0.52030990    0.06500000
opls_526-669    H    0.17792995    0.60936985    0.44559005    0.06500000
opls_525-670    H    0.09777990    0.64401985    0.41924983    0.15500000
opls_526-671    H    0.00159011    0.33222003    0.54561992    0.06500000
opls_146-672    H    0.91658011    0.32306004    0.57630001    0.11500000
opls_146-673    H    0.92204018    0.46929004    0.63468983    0.11500000
opls_526-674    H    0.00655001    0.47839986    0.60348009    0.06500000
opls_146-675    H    0.70790000    0.81645986    0.07681013    0.11500000
opls_146-676    H    0.79224017    0.79372994    0.09835015    0.11500000
opls_146-677    H    0.82136998    0.94273000    0.14135014    0.11500000
opls_146-678    H    0.73439992    0.96430984    0.12415995    0.11500000
opls_144-679    H    0.85559985    0.64138001    0.34174996    0.11500000
opls_526-680    H    0.77629005    0.45933998    0.47969010    0.06500000
opls_526-681    H    0.82207005    0.60936985    0.55440995    0.06500000
opls_525-682    H    0.90222010    0.64401985    0.58075017    0.15500000
opls_526-683    H    0.99840989    0.33222003    0.45438008    0.06500000
opls_146-684    H    0.08341989    0.32306004    0.42369999    0.11500000
opls_146-685    H    0.07795982    0.46929004    0.36531017    0.11500000
opls_526-686    H    0.99344999    0.47839986    0.39651991    0.06500000
opls_146-687    H    0.29210000    0.81645986    0.92318987    0.11500000
opls_146-688    H    0.20775983    0.79372994    0.90164985    0.11500000
opls_146-689    H    0.17863002    0.94273000    0.85864986    0.11500000
opls_146-690    H    0.26560008    0.96430984    0.87584005    0.11500000
opls_144-691    H    0.14440015    0.64138001    0.65825004    0.11500000
opls_526-692    H    0.22370995    0.54066002    0.47969010    0.06500000
opls_526-693    H    0.17792995    0.39063015    0.55440995    0.06500000
opls_525-694    H    0.09777990    0.35598015    0.58075017    0.15500000
opls_526-695    H    0.00159011    0.66777997    0.45438008    0.06500000
opls_146-696    H    0.91658011    0.67693996    0.42369999    0.11500000
opls_146-697    H    0.92204018    0.53070996    0.36531017    0.11500000
opls_526-698    H    0.00655001    0.52160014    0.39651991    0.06500000
opls_146-699    H    0.70790000    0.18354014    0.92318987    0.11500000
opls_146-700    H    0.79224017    0.20627006    0.90164985    0.11500000
opls_146-701    H    0.82136998    0.05727000    0.85864986    0.11500000
opls_146-702    H    0.73439992    0.03569016    0.87584005    0.11500000
opls_144-703    H    0.85559985    0.35861999    0.65825004    0.11500000
opls_526-704    H    0.54066002    0.47969010    0.22370995    0.06500000
opls_526-705    H    0.39063015    0.55440995    0.17792995    0.06500000
opls_525-706    H    0.35598015    0.58075017    0.09777990    0.15500000
opls_526-707    H    0.66777997    0.45438008    0.00159011    0.06500000
opls_146-708    H    0.67693996    0.42369999    0.91658011    0.11500000
opls_146-709    H    0.53070996    0.36531017    0.92204018    0.11500000
opls_526-710    H    0.52160014    0.39651991    0.00655001    0.06500000
opls_146-711    H    0.18354014    0.92318987    0.70790000    0.11500000
opls_146-712    H    0.20627006    0.90164985    0.79224017    0.11500000
opls_146-713    H    0.05727000    0.85864986    0.82136998    0.11500000
opls_146-714    H    0.03569016    0.87584005    0.73439992    0.11500000
opls_144-715    H    0.35861999    0.65825004    0.85559985    0.11500000
opls_526-716    H    0.45933998    0.47969010    0.77629005    0.06500000
opls_526-717    H    0.60936985    0.55440995    0.82207005    0.06500000
opls_525-718    H    0.64401985    0.58075017    0.90222010    0.15500000
opls_526-719    H    0.33222003    0.45438008    0.99840989    0.06500000
opls_146-720    H    0.32306004    0.42369999    0.08341989    0.11500000
opls_146-721    H    0.46929004    0.36531017    0.07795982    0.11500000
opls_526-722    H    0.47839986    0.39651991    0.99344999    0.06500000
opls_146-723    H    0.81645986    0.92318987    0.29210000    0.11500000
opls_146-724    H    0.79372994    0.90164985    0.20775983    0.11500000
opls_146-725    H    0.94273000    0.85864986    0.17863002    0.11500000
opls_146-726    H    0.96430984    0.87584005    0.26560008    0.11500000
opls_144-727    H    0.64138001    0.65825004    0.14440015    0.11500000
opls_526-728    H    0.45933998    0.52030990    0.22370995    0.06500000
opls_526-729    H    0.60936985    0.44559005    0.17792995    0.06500000
opls_525-730    H    0.64401985    0.41924983    0.09777990    0.15500000
opls_526-731    H    0.33222003    0.54561992    0.00159011    0.06500000
opls_146-732    H    0.32306004    0.57630001    0.91658011    0.11500000
opls_146-733    H    0.46929004    0.63468983    0.92204018    0.11500000
opls_526-734    H    0.47839986    0.60348009    0.00655001    0.06500000
opls_146-735    H    0.81645986    0.07681013    0.70790000    0.11500000
opls_146-736    H    0.79372994    0.09835015    0.79224017    0.11500000
opls_146-737    H    0.94273000    0.14135014    0.82136998    0.11500000
opls_146-738    H    0.96430984    0.12415995    0.73439992    0.11500000
opls_144-739    H    0.64138001    0.34174996    0.85559985    0.11500000
opls_526-740    H    0.54066002    0.52030990    0.77629005    0.06500000
opls_526-741    H    0.39063015    0.44559005    0.82207005    0.06500000
opls_525-742    H    0.35598015    0.41924983    0.90222010    0.15500000
opls_526-743    H    0.66777997    0.54561992    0.99840989    0.06500000
opls_146-744    H    0.67693996    0.57630001    0.08341989    0.11500000
opls_146-745    H    0.53070996    0.63468983    0.07795982    0.11500000
opls_526-746    H    0.52160014    0.60348009    0.99344999    0.06500000
opls_146-747    H    0.18354014    0.07681013    0.29210000    0.11500000
opls_146-748    H    0.20627006    0.09835015    0.20775983    0.11500000
opls_146-749    H    0.05727000    0.14135014    0.17863002    0.11500000
opls_146-750    H    0.03569016    0.12415995    0.26560008    0.11500000
opls_144-751    H    0.35861999    0.34174996    0.14440015    0.11500000
opls_526-752    H    0.52030990    0.77629005    0.54066002    0.06500000
opls_526-753    H    0.44559005    0.82207005    0.39063015    0.06500000
opls_525-754    H    0.41924983    0.90222010    0.35598015    0.15500000
opls_526-755    H    0.54561992    0.99840989    0.66777997    0.06500000
opls_146-756    H    0.57630001    0.08341989    0.67693996    0.11500000
opls_146-757    H    0.63468983    0.07795982    0.53070996    0.11500000
opls_526-758    H    0.60348009    0.99344999    0.52160014    0.06500000
opls_146-759    H    0.07681013    0.29210000    0.18354014    0.11500000
opls_146-760    H    0.09835015    0.20775983    0.20627006    0.11500000
opls_146-761    H    0.14135014    0.17863002    0.05727000    0.11500000
opls_146-762    H    0.12415995    0.26560008    0.03569016    0.11500000
opls_144-763    H    0.34174996    0.14440015    0.35861999    0.11500000
opls_526-764    H    0.52030990    0.22370995    0.45933998    0.06500000
opls_526-765    H    0.44559005    0.17792995    0.60936985    0.06500000
opls_525-766    H    0.41924983    0.09777990    0.64401985    0.15500000
opls_526-767    H    0.54561992    0.00159011    0.33222003    0.06500000
opls_146-768    H    0.57630001    0.91658011    0.32306004    0.11500000
opls_146-769    H    0.63468983    0.92204018    0.46929004    0.11500000
opls_526-770    H    0.60348009    0.00655001    0.47839986    0.06500000
opls_146-771    H    0.07681013    0.70790000    0.81645986    0.11500000
opls_146-772    H    0.09835015    0.79224017    0.79372994    0.11500000
opls_146-773    H    0.14135014    0.82136998    0.94273000    0.11500000
opls_146-774    H    0.12415995    0.73439992    0.96430984    0.11500000
opls_144-775    H    0.34174996    0.85559985    0.64138001    0.11500000
opls_526-776    H    0.47969010    0.77629005    0.45933998    0.06500000
opls_526-777    H    0.55440995    0.82207005    0.60936985    0.06500000
opls_525-778    H    0.58075017    0.90222010    0.64401985    0.15500000
opls_526-779    H    0.45438008    0.99840989    0.33222003    0.06500000
opls_146-780    H    0.42369999    0.08341989    0.32306004    0.11500000
opls_146-781    H    0.36531017    0.07795982    0.46929004    0.11500000
opls_526-782    H    0.39651991    0.99344999    0.47839986    0.06500000
opls_146-783    H    0.92318987    0.29210000    0.81645986    0.11500000
opls_146-784    H    0.90164985    0.20775983    0.79372994    0.11500000
opls_146-785    H    0.85864986    0.17863002    0.94273000    0.11500000
opls_146-786    H    0.87584005    0.26560008    0.96430984    0.11500000
opls_144-787    H    0.65825004    0.14440015    0.64138001    0.11500000
opls_526-788    H    0.47969010    0.22370995    0.54066002    0.06500000
opls_526-789    H    0.55440995    0.17792995    0.39063015    0.06500000
opls_525-790    H    0.58075017    0.09777990    0.35598015    0.15500000
opls_526-791    H    0.45438008    0.00159011    0.66777997    0.06500000
opls_146-792    H    0.42369999    0.91658011    0.67693996    0.11500000
opls_146-793    H    0.36531017    0.92204018    0.53070996    0.11500000
opls_526-794    H    0.39651991    0.00655001    0.52160014    0.06500000
opls_146-795    H    0.92318987    0.70790000    0.18354014    0.11500000
opls_146-796    H    0.90164985    0.79224017    0.20627006    0.11500000
opls_146-797    H    0.85864986    0.82136998    0.05727000    0.11500000
opls_146-798    H    0.87584005    0.73439992    0.03569016    0.11500000
opls_144-799    H    0.65825004    0.85559985    0.35861999    0.11500000
MOF2_F_-800    F    0.00132011    0.77791003    0.54524997    0.00000000
MOF2_F_-801    F    0.99867989    0.22208997    0.54524997    0.00000000
MOF2_F_-802    F    0.99867989    0.77791003    0.45475003    0.00000000
MOF2_F_-803    F    0.00132011    0.22208997    0.45475003    0.00000000
MOF2_F_-804    F    0.54524997    0.00132011    0.77791003    0.00000000
MOF2_F_-805    F    0.54524997    0.99867989    0.22208997    0.00000000
MOF2_F_-806    F    0.45475003    0.99867989    0.77791003    0.00000000
MOF2_F_-807    F    0.45475003    0.00132011    0.22208997    0.00000000
MOF2_F_-808    F    0.77791003    0.45475003    0.99867989    0.00000000
MOF2_F_-809    F    0.22208997    0.45475003    0.00132011    0.00000000
MOF2_F_-810    F    0.77791003    0.54524997    0.00132011    0.00000000
MOF2_F_-811    F    0.22208997    0.54524997    0.99867989    0.00000000
MOF2_F_-812    F    0.27791003    0.50132011    0.95475003    0.00000000
MOF2_F_-813    F    0.72208997    0.49867989    0.95475003    0.00000000
MOF2_F_-814    F    0.27791003    0.49867989    0.04524997    0.00000000
MOF2_F_-815    F    0.72208997    0.50132011    0.04524997    0.00000000
MOF2_F_-816    F    0.50132011    0.04524997    0.72208997    0.00000000
MOF2_F_-817    F    0.49867989    0.04524997    0.27791003    0.00000000
MOF2_F_-818    F    0.49867989    0.95475003    0.72208997    0.00000000
MOF2_F_-819    F    0.50132011    0.95475003    0.27791003    0.00000000
MOF2_F_-820    F    0.95475003    0.27791003    0.50132011    0.00000000
MOF2_F_-821    F    0.95475003    0.72208997    0.49867989    0.00000000
MOF2_F_-822    F    0.04524997    0.27791003    0.49867989    0.00000000
MOF2_F_-823    F    0.04524997    0.72208997    0.50132011    0.00000000
MOF2_O_3-824    O    0.27175984    0.63976003    0.98295993    0.00000000
MOF2_O_3-825    O    0.25000000    0.40249010    0.90249010    0.00000000
opls_420-826    O    0.59868984    0.40131016    0.59868984    -0.98000000
MOF2_O_3-827    O    0.79976983    0.25000000    0.29976983    0.00000000
MOF2_O_3-828    O    0.72824016    0.36023997    0.98295993    0.00000000
MOF2_O_3-829    O    0.75000000    0.59750990    0.90249010    0.00000000
opls_420-830    O    0.40131016    0.59868984    0.59868984    -0.98000000
MOF2_O_3-831    O    0.20023017    0.75000000    0.29976983    0.00000000
MOF2_O_3-832    O    0.72824016    0.63976003    0.01704007    0.00000000
MOF2_O_3-833    O    0.75000000    0.40249010    0.09750990    0.00000000
opls_420-834    O    0.40131016    0.40131016    0.40131016    -0.98000000
MOF2_O_3-835    O    0.20023017    0.25000000    0.70023017    0.00000000
MOF2_O_3-836    O    0.27175984    0.36023997    0.01704007    0.00000000
MOF2_O_3-837    O    0.25000000    0.59750990    0.09750990    0.00000000
opls_420-838    O    0.59868984    0.59868984    0.40131016    -0.98000000
MOF2_O_3-839    O    0.79976983    0.75000000    0.70023017    0.00000000
MOF2_O_3-840    O    0.98295993    0.27175984    0.63976003    0.00000000
MOF2_O_3-841    O    0.90249010    0.25000000    0.40249010    0.00000000
MOF2_O_3-842    O    0.29976983    0.79976983    0.25000000    0.00000000
MOF2_O_3-843    O    0.98295993    0.72824016    0.36023997    0.00000000
MOF2_O_3-844    O    0.90249010    0.75000000    0.59750990    0.00000000
MOF2_O_3-845    O    0.29976983    0.20023017    0.75000000    0.00000000
MOF2_O_3-846    O    0.01704007    0.72824016    0.63976003    0.00000000
MOF2_O_3-847    O    0.09750990    0.75000000    0.40249010    0.00000000
MOF2_O_3-848    O    0.70023017    0.20023017    0.25000000    0.00000000
MOF2_O_3-849    O    0.01704007    0.27175984    0.36023997    0.00000000
MOF2_O_3-850    O    0.09750990    0.25000000    0.59750990    0.00000000
MOF2_O_3-851    O    0.70023017    0.79976983    0.75000000    0.00000000
MOF2_O_3-852    O    0.63976003    0.01704007    0.72824016    0.00000000
MOF2_O_3-853    O    0.40249010    0.09750990    0.75000000    0.00000000
MOF2_O_3-854    O    0.25000000    0.70023017    0.20023017    0.00000000
MOF2_O_3-855    O    0.36023997    0.01704007    0.27175984    0.00000000
MOF2_O_3-856    O    0.59750990    0.09750990    0.25000000    0.00000000
MOF2_O_3-857    O    0.75000000    0.70023017    0.79976983    0.00000000
MOF2_O_3-858    O    0.63976003    0.98295993    0.27175984    0.00000000
MOF2_O_3-859    O    0.40249010    0.90249010    0.25000000    0.00000000
MOF2_O_3-860    O    0.25000000    0.29976983    0.79976983    0.00000000
MOF2_O_3-861    O    0.36023997    0.98295993    0.72824016    0.00000000
MOF2_O_3-862    O    0.59750990    0.90249010    0.75000000    0.00000000
MOF2_O_3-863    O    0.75000000    0.29976983    0.20023017    0.00000000
MOF2_O_3-864    O    0.13976003    0.77175984    0.51704007    0.00000000
opls_420-865    O    0.90131016    0.09868984    0.90131016    -0.98000000
MOF2_O_3-866    O    0.86023997    0.22824016    0.51704007    0.00000000
opls_420-867    O    0.09868984    0.90131016    0.90131016    -0.98000000
MOF2_O_3-868    O    0.13976003    0.22824016    0.48295993    0.00000000
opls_420-869    O    0.90131016    0.90131016    0.09868984    -0.98000000
MOF2_O_3-870    O    0.86023997    0.77175984    0.48295993    0.00000000
opls_420-871    O    0.09868984    0.09868984    0.09868984    -0.98000000
MOF2_O_3-872    O    0.77175984    0.48295993    0.86023997    0.00000000
MOF2_O_3-873    O    0.22824016    0.48295993    0.13976003    0.00000000
MOF2_O_3-874    O    0.22824016    0.51704007    0.86023997    0.00000000
MOF2_O_3-875    O    0.77175984    0.51704007    0.13976003    0.00000000
MOF2_O_3-876    O    0.51704007    0.13976003    0.77175984    0.00000000
MOF2_O_3-877    O    0.51704007    0.86023997    0.22824016    0.00000000
MOF2_O_3-878    O    0.48295993    0.13976003    0.22824016    0.00000000
MOF2_O_3-879    O    0.48295993    0.86023997    0.77175984    0.00000000
Cu2+-880    Cu    0.50000000    0.00000000    0.00000000    2.00000000
Cu2+-881    Cu    0.00000000    0.50000000    0.00000000    2.00000000
Cu2+-882    Cu    0.00000000    0.00000000    0.50000000    2.00000000
Cu2+-883    Cu    0.50000000    0.00000000    0.50000000    2.00000000
Cu2+-884    Cu    0.00000000    0.50000000    0.50000000    2.00000000
Cu2+-885    Cu    0.50000000    0.50000000    0.00000000    2.00000000
MOF2_B_3-886    B    0.00000000    0.75000000    0.50000000    0.00000000
MOF2_B_3-887    B    0.00000000    0.25000000    0.50000000    0.00000000
MOF2_B_3-888    B    0.50000000    0.00000000    0.75000000    0.00000000
MOF2_B_3-889    B    0.50000000    0.00000000    0.25000000    0.00000000
MOF2_B_3-890    B    0.75000000    0.50000000    0.00000000    0.00000000
MOF2_B_3-891    B    0.25000000    0.50000000    0.00000000    0.00000000
