#======================================================================
# Crystal Data Generated By AuToFF
#----------------------------------------------------------------------

data_AuToFF_phase_1

_cell_length_a                         37.6562
_cell_length_b                         37.4455
_cell_length_c                         7.2200
_cell_angle_alpha                      90.00
_cell_angle_beta                       90.00
_cell_angle_gamma                      120.00
_symmetry_space_group_name_H-M_alt     'P 1'
_symmetry_space_group_IT_number        1

loop_
_space_group_symop_operation_xyz
   'x, y, z'

loop_
   _atom_site_label
   _atom_site_type_symbol
   _atom_site_fract_x
   _atom_site_fract_y
   _atom_site_fract_z
   _atom_site_charge
opls_700-0    C    0.93559996    0.22199992    0.16009972    0.06250000
opls_145-1    C    0.96000012    0.21030012    0.05859972    -0.12710000
opls_145-2    C    0.00279998    0.23360012    0.06709972    -0.16650000
opls_145-3    C    0.02199995    0.26920002    0.17830055    0.19170000
opls_145-4    C    0.99779994    0.28109995    0.27780055    -0.16250000
opls_145-5    C    0.95500005    0.25760012    0.27040028    -0.13010000
opls_142-6    C    0.09209999    0.28249994    0.15790028    0.07050000
opls_700-7    C    0.32349997    0.19339999    0.14090028    0.06660000
opls_700-8    C    0.29840011    0.21420005    0.13850000    0.06860000
opls_145-9    C    0.31289995    0.25289997    0.22369945    -0.13020000
opls_145-10    C    0.28910002    0.27200000    0.22550000    -0.16570000
opls_145-11    C    0.25029990    0.25289997    0.14080055    0.19210000
opls_145-12    C    0.23559986    0.21439988    0.05769945    -0.16120000
opls_142-13    C    0.23650021    0.30970019    0.16109972    0.07000000
opls_142-14    C    0.20979992    0.42719994    0.17559972    0.07030000
opls_145-15    C    0.25940021    0.19530016    0.05509972    -0.12970000
opls_145-16    C    0.86660017    0.21660008    0.14159972    -0.16850000
opls_700-17    C    0.89019993    0.19720002    0.15140028    0.06250000
opls_145-18    C    0.87040017    0.65400023    0.15519945    -0.17040000
opls_700-19    C    0.32750005    0.63010014    0.14940028    0.06250000
opls_145-20    C    0.30440006    0.65009999    0.14430055    -0.17380000
opls_145-21    C    0.26719996    0.49730008    0.15050000    0.19990000
opls_145-22    C    0.25010015    0.51770019    0.24669945    -0.16580000
opls_145-23    C    0.26960012    0.56070000    0.24600000    -0.12500000
opls_700-24    C    0.30680004    0.58430004    0.15080055    0.06940000
opls_145-25    C    0.32399993    0.56370011    0.05650000    -0.13010000
opls_145-26    C    0.30450006    0.52060008    0.05769945    -0.17030000
opls_700-27    C    0.19440021    0.38240019    0.17230055    0.05700000
opls_145-28    C    0.22160003    0.36710018    0.16869945    -0.17830000
opls_700-29    C    0.20689988    0.32459993    0.16259972    0.06010000
opls_145-30    C    0.16429985    0.29709995    0.15890028    -0.17190000
opls_700-31    C    0.13669988    0.31200000    0.16400000    0.06780000
opls_145-32    C    0.15199996    0.35470007    0.17190028    -0.16200000
opls_700-33    C    0.43559996    0.22199992    0.16009972    0.06250000
opls_145-34    C    0.46000012    0.21030012    0.05859972    -0.12710000
opls_145-35    C    0.50279998    0.23360012    0.06709972    -0.16640000
opls_145-36    C    0.52199995    0.26920002    0.17830055    0.19170000
opls_145-37    C    0.49779994    0.28109995    0.27780055    -0.16250000
opls_145-38    C    0.45500005    0.25760012    0.27040028    -0.13010000
opls_142-39    C    0.59209999    0.28249994    0.15790028    0.07050000
opls_700-40    C    0.82349997    0.19339999    0.14090028    0.06660000
opls_700-41    C    0.79840011    0.21420005    0.13850000    0.06860000
opls_145-42    C    0.81289995    0.25289997    0.22369945    -0.13030000
opls_145-43    C    0.78910002    0.27200000    0.22550000    -0.16570000
opls_145-44    C    0.75029990    0.25289997    0.14080055    0.19210000
opls_145-45    C    0.73559986    0.21439988    0.05769945    -0.16120000
opls_142-46    C    0.73650021    0.30970019    0.16109972    0.07010000
opls_142-47    C    0.70979992    0.42719994    0.17559972    0.07040000
opls_145-48    C    0.75940021    0.19530016    0.05509972    -0.12970000
opls_145-49    C    0.36660017    0.21660008    0.14159972    -0.16840000
opls_700-50    C    0.39019993    0.19720002    0.15140028    0.06250000
opls_145-51    C    0.37040017    0.65400023    0.15519945    -0.17040000
opls_700-52    C    0.82750005    0.63010014    0.14940028    0.06250000
opls_145-53    C    0.80440006    0.65009999    0.14430055    -0.17380000
opls_145-54    C    0.76719996    0.49730008    0.15050000    0.20000000
opls_145-55    C    0.75010015    0.51770019    0.24669945    -0.16580000
opls_145-56    C    0.76960012    0.56070000    0.24600000    -0.12490000
opls_700-57    C    0.80680004    0.58430004    0.15080055    0.06940000
opls_145-58    C    0.82399993    0.56370011    0.05650000    -0.13010000
opls_145-59    C    0.80450006    0.52060008    0.05769945    -0.17030000
opls_700-60    C    0.69440021    0.38240019    0.17230055    0.05700000
opls_145-61    C    0.72160003    0.36710018    0.16869945    -0.17840000
opls_700-62    C    0.70689988    0.32459993    0.16259972    0.06020000
opls_145-63    C    0.66429985    0.29709995    0.15890028    -0.17190000
opls_700-64    C    0.63669988    0.31200000    0.16400000    0.06780000
opls_145-65    C    0.65199996    0.35470007    0.17190028    -0.16200000
opls_700-66    C    0.93560017    0.72200008    0.16009972    0.06250000
opls_145-67    C    0.95999991    0.71029997    0.05859972    -0.12700000
opls_145-68    C    0.00280004    0.73359997    0.06709972    -0.16650000
opls_145-69    C    0.02200016    0.76920017    0.17830055    0.19180000
opls_145-70    C    0.99780015    0.78110010    0.27780055    -0.16250000
opls_145-71    C    0.95500010    0.75759997    0.27040028    -0.13010000
opls_142-72    C    0.09209994    0.78250010    0.15790028    0.07050000
opls_700-73    C    0.32350018    0.69340015    0.14090028    0.06660000
opls_700-74    C    0.29840005    0.71420021    0.13850000    0.06860000
opls_145-75    C    0.31290016    0.75290013    0.22369945    -0.13030000
opls_145-76    C    0.28909996    0.77200015    0.22550000    -0.16580000
opls_145-77    C    0.25030011    0.75290013    0.14080055    0.19220000
opls_145-78    C    0.23560007    0.71440003    0.05769945    -0.16110000
opls_142-79    C    0.23650000    0.80970003    0.16109972    0.07000000
opls_142-80    C    0.20980013    0.92720009    0.17559972    0.07030000
opls_145-81    C    0.25940000    0.69530000    0.05509972    -0.12970000
opls_145-82    C    0.86660011    0.71660024    0.14159972    -0.16850000
opls_700-83    C    0.89020014    0.69720017    0.15140028    0.06250000
opls_145-84    C    0.87039996    0.15400008    0.15519945    -0.17040000
opls_700-85    C    0.32750011    0.13009999    0.14940028    0.06250000
opls_145-86    C    0.30440000    0.15010014    0.14430055    -0.17380000
opls_145-87    C    0.26720017    0.99730024    0.15050000    0.19990000
opls_145-88    C    0.25009994    0.01770003    0.24669945    -0.16580000
opls_145-89    C    0.26960006    0.06070015    0.24600000    -0.12500000
opls_700-90    C    0.30679983    0.08429989    0.15080055    0.06940000
opls_145-91    C    0.32399999    0.06369996    0.05650000    -0.13010000
opls_145-92    C    0.30449985    0.02059993    0.05769945    -0.17030000
opls_700-93    C    0.19440000    0.88240003    0.17230055    0.05700000
opls_145-94    C    0.22160008    0.86710003    0.16869945    -0.17840000
opls_700-95    C    0.20690009    0.82460008    0.16259972    0.06020000
opls_145-96    C    0.16430006    0.79710010    0.15890028    -0.17190000
opls_700-97    C    0.13670009    0.81200015    0.16400000    0.06780000
opls_145-98    C    0.15200017    0.85470023    0.17190028    -0.16200000
opls_700-99    C    0.43560017    0.72200008    0.16009972    0.06250000
opls_145-100    C    0.45999991    0.71029997    0.05859972    -0.12710000
opls_145-101    C    0.50280004    0.73359997    0.06709972    -0.16640000
opls_145-102    C    0.52200016    0.76920017    0.17830055    0.19180000
opls_145-103    C    0.49780015    0.78110010    0.27780055    -0.16250000
opls_145-104    C    0.45500010    0.75759997    0.27040028    -0.13010000
opls_142-105    C    0.59209994    0.78250010    0.15790028    0.07050000
opls_700-106    C    0.82350018    0.69340015    0.14090028    0.06660000
opls_700-107    C    0.79840005    0.71420021    0.13850000    0.06860000
opls_145-108    C    0.81290016    0.75290013    0.22369945    -0.13030000
opls_145-109    C    0.78909996    0.77200015    0.22550000    -0.16580000
opls_145-110    C    0.75030011    0.75290013    0.14080055    0.19210000
opls_145-111    C    0.73560007    0.71440003    0.05769945    -0.16120000
opls_142-112    C    0.73650000    0.80970003    0.16109972    0.07000000
opls_142-113    C    0.70980013    0.92720009    0.17559972    0.07030000
opls_145-114    C    0.75940000    0.69530000    0.05509972    -0.12970000
opls_145-115    C    0.36660011    0.71660024    0.14159972    -0.16850000
opls_700-116    C    0.39020014    0.69720017    0.15140028    0.06250000
opls_145-117    C    0.37039996    0.15400008    0.15519945    -0.17040000
opls_700-118    C    0.82750011    0.13009999    0.14940028    0.06250000
opls_145-119    C    0.80440000    0.15010014    0.14430055    -0.17370000
opls_145-120    C    0.76720017    0.99730024    0.15050000    0.19990000
opls_145-121    C    0.75009994    0.01770003    0.24669945    -0.16580000
opls_145-122    C    0.76960006    0.06070015    0.24600000    -0.12490000
opls_700-123    C    0.80679983    0.08429989    0.15080055    0.06940000
opls_145-124    C    0.82399999    0.06369996    0.05650000    -0.13010000
opls_145-125    C    0.80449985    0.02059993    0.05769945    -0.17030000
opls_700-126    C    0.69440000    0.88240003    0.17230055    0.05700000
opls_145-127    C    0.72160008    0.86710003    0.16869945    -0.17840000
opls_700-128    C    0.70690009    0.82460008    0.16259972    0.06020000
opls_145-129    C    0.66430006    0.79710010    0.15890028    -0.17190000
opls_700-130    C    0.63670009    0.81200015    0.16400000    0.06780000
opls_145-131    C    0.65200017    0.85470023    0.17190028    -0.16200000
opls_700-132    C    0.07990002    0.05329993    0.62659972    0.06470000
opls_145-133    C    0.10419990    0.03969996    0.53640028    -0.13090000
opls_145-134    C    0.14710007    0.06320009    0.54340028    -0.17360000
opls_145-135    C    0.16649992    0.10080006    0.64059972    0.19170000
opls_145-136    C    0.14239994    0.11470007    0.72669945    -0.16650000
opls_145-137    C    0.09960015    0.09110003    0.72190028    -0.12780000
opls_142-138    C    0.23649996    0.11339999    0.63380055    0.07070000
opls_700-139    C    0.46720005    0.02369996    0.60780055    0.06690000
opls_700-140    C    0.44209999    0.04429989    0.60269945    0.06930000
opls_145-141    C    0.45390004    0.08009991    0.70790028    -0.12870000
opls_145-142    C    0.43009984    0.09919994    0.70740028    -0.16580000
opls_145-143    C    0.39400003    0.08289990    0.60130055    0.19170000
opls_145-144    C    0.38189989    0.04699996    0.49850000    -0.16520000
opls_142-145    C    0.38040011    0.13940007    0.63509972    0.07030000
opls_142-146    C    0.35469998    0.25770003    0.66609972    0.06990000
opls_145-147    C    0.40589996    0.02800015    0.49750000    -0.13090000
opls_145-148    C    0.01019989    0.04709987    0.60869945    -0.16920000
opls_700-149    C    0.03419996    0.02810007    0.62150000    0.07020000
opls_145-150    C    0.01440004    0.48489997    0.63140028    -0.17490000
opls_700-151    C    0.47140003    0.46070015    0.62690028    0.06550000
opls_145-152    C    0.44810004    0.48050017    0.61580055    -0.18020000
opls_145-153    C    0.41179997    0.32800000    0.63640028    0.19960000
opls_145-154    C    0.39540018    0.34840011    0.73790028    -0.17530000
opls_145-155    C    0.41479995    0.39160005    0.73580055    -0.13090000
opls_700-156    C    0.45090000    0.41499996    0.63259972    0.06940000
opls_145-157    C    0.46740012    0.39430012    0.53359972    -0.12970000
opls_145-158    C    0.44809997    0.35130000    0.53730055    -0.16060000
opls_700-159    C    0.33909988    0.21289997    0.65459972    0.06010000
opls_145-160    C    0.36610006    0.19729993    0.65050000    -0.16850000
opls_700-161    C    0.35109997    0.15470007    0.64030055    0.06160000
opls_145-162    C    0.30860001    0.12760005    0.63690028    -0.16930000
opls_700-163    C    0.28109991    0.14260001    0.63980055    0.06890000
opls_145-164    C    0.29670008    0.18539999    0.64750000    -0.16550000
opls_700-165    C    0.57990002    0.05329993    0.62659972    0.06470000
opls_145-166    C    0.60419990    0.03969996    0.53640028    -0.13090000
opls_145-167    C    0.64710007    0.06320009    0.54340028    -0.17360000
opls_145-168    C    0.66649992    0.10080006    0.64059972    0.19170000
opls_145-169    C    0.64239994    0.11470007    0.72669945    -0.16650000
opls_145-170    C    0.59959988    0.09110003    0.72190028    -0.12780000
opls_142-171    C    0.73649996    0.11339999    0.63380055    0.07070000
opls_700-172    C    0.96720005    0.02369996    0.60780055    0.06690000
opls_700-173    C    0.94209999    0.04429989    0.60269945    0.06930000
opls_145-174    C    0.95390004    0.08009991    0.70790028    -0.12860000
opls_145-175    C    0.93009984    0.09919994    0.70740028    -0.16580000
opls_145-176    C    0.89400003    0.08289990    0.60130055    0.19180000
opls_145-177    C    0.88189989    0.04699996    0.49850000    -0.16520000
opls_142-178    C    0.88040011    0.13940007    0.63509972    0.07040000
opls_142-179    C    0.85469998    0.25770003    0.66609972    0.06990000
opls_145-180    C    0.90589996    0.02800015    0.49750000    -0.13090000
opls_145-181    C    0.51019989    0.04709987    0.60869945    -0.16920000
opls_700-182    C    0.53419996    0.02810007    0.62150000    0.07020000
opls_145-183    C    0.51440004    0.48489997    0.63140028    -0.17490000
opls_700-184    C    0.97140003    0.46070015    0.62690028    0.06550000
opls_145-185    C    0.94810004    0.48050017    0.61580055    -0.18020000
opls_145-186    C    0.91179997    0.32800000    0.63640028    0.19960000
opls_145-187    C    0.89540018    0.34840011    0.73790028    -0.17530000
opls_145-188    C    0.91479995    0.39160005    0.73580055    -0.13090000
opls_700-189    C    0.95090000    0.41499996    0.63259972    0.06940000
opls_145-190    C    0.96740012    0.39430012    0.53359972    -0.12480000
opls_145-191    C    0.94809997    0.35130000    0.53730055    -0.16060000
opls_700-192    C    0.83909988    0.21289997    0.65459972    0.06010000
opls_145-193    C    0.86610006    0.19729993    0.65050000    -0.16850000
opls_700-194    C    0.85109997    0.15470007    0.64030055    0.06160000
opls_145-195    C    0.80860001    0.12760005    0.63690028    -0.16930000
opls_700-196    C    0.78109991    0.14260001    0.63980055    0.06890000
opls_145-197    C    0.79670008    0.18539999    0.64750000    -0.16550000
opls_700-198    C    0.07989997    0.55330008    0.62659972    0.06470000
opls_145-199    C    0.10420011    0.53970011    0.53640028    -0.13090000
opls_145-200    C    0.14709986    0.56319994    0.54340028    -0.17350000
opls_145-201    C    0.16650013    0.60080022    0.64059972    0.19170000
opls_145-202    C    0.14240015    0.61470023    0.72669945    -0.16650000
opls_145-203    C    0.09960009    0.59110018    0.72190028    -0.12780000
opls_142-204    C    0.23650017    0.61340015    0.63380055    0.07080000
opls_700-205    C    0.46719999    0.52370011    0.60780055    0.06690000
opls_700-206    C    0.44209994    0.54430004    0.60269945    0.06930000
opls_145-207    C    0.45389998    0.58010007    0.70790028    -0.12870000
opls_145-208    C    0.43010005    0.59920009    0.70740028    -0.16580000
opls_145-209    C    0.39399998    0.58290005    0.60130055    0.19170000
opls_145-210    C    0.38190010    0.54700012    0.49850000    -0.16520000
opls_142-211    C    0.38040005    0.63940022    0.63509972    0.07050000
opls_142-212    C    0.35470019    0.75770019    0.66609972    0.07000000
opls_145-213    C    0.40590001    0.52800000    0.49750000    -0.13090000
opls_145-214    C    0.01020010    0.54710003    0.60869945    -0.16920000
opls_700-215    C    0.03420017    0.52810022    0.62150000    0.07020000
opls_145-216    C    0.01439999    0.98490013    0.63140028    -0.17490000
opls_700-217    C    0.47140008    0.96070000    0.62690028    0.06550000
opls_145-218    C    0.44810009    0.98050002    0.61580055    -0.18020000
opls_145-219    C    0.41180018    0.82800015    0.63640028    0.19950000
opls_145-220    C    0.39540012    0.84840026    0.73790028    -0.17520000
opls_145-221    C    0.41480016    0.89160020    0.73580055    -0.13090000
opls_700-222    C    0.45089994    0.91500012    0.63259972    0.06940000
opls_145-223    C    0.46739991    0.89429997    0.53359972    -0.12960000
opls_145-224    C    0.44810018    0.85130016    0.53730055    -0.16060000
opls_700-225    C    0.33910009    0.71290013    0.65459972    0.06020000
opls_145-226    C    0.36610001    0.69730008    0.65050000    -0.16850000
opls_700-227    C    0.35110018    0.65470023    0.64030055    0.06160000
opls_145-228    C    0.30860022    0.62760020    0.63690028    -0.16930000
opls_700-229    C    0.28110012    0.64260016    0.63980055    0.06890000
opls_145-230    C    0.29670003    0.68540015    0.64750000    -0.16550000
opls_700-231    C    0.57989997    0.55330008    0.62659972    0.06470000
opls_145-232    C    0.60420011    0.53970011    0.53640028    -0.13090000
opls_145-233    C    0.64709986    0.56319994    0.54340028    -0.17360000
opls_145-234    C    0.66650013    0.60080022    0.64059972    0.19170000
opls_145-235    C    0.64240015    0.61470023    0.72669945    -0.16650000
opls_145-236    C    0.59960009    0.59110018    0.72190028    -0.12780000
opls_142-237    C    0.73650017    0.61340015    0.63380055    0.07070000
opls_700-238    C    0.96719999    0.52370011    0.60780055    0.06690000
opls_700-239    C    0.94209994    0.54430004    0.60269945    0.06930000
opls_145-240    C    0.95389998    0.58010007    0.70790028    -0.12870000
opls_145-241    C    0.93010005    0.59920009    0.70740028    -0.16580000
opls_145-242    C    0.89399998    0.58290005    0.60130055    0.19170000
opls_145-243    C    0.88190010    0.54700012    0.49850000    -0.16520000
opls_142-244    C    0.88040005    0.63940022    0.63509972    0.07030000
opls_142-245    C    0.85470019    0.75770019    0.66609972    0.06990000
opls_145-246    C    0.90590001    0.52800000    0.49750000    -0.13090000
opls_145-247    C    0.51020010    0.54710003    0.60869945    -0.16920000
opls_700-248    C    0.53420017    0.52810022    0.62150000    0.07020000
opls_145-249    C    0.51439999    0.98490013    0.63140028    -0.17490000
opls_700-250    C    0.97140008    0.96070000    0.62690028    0.06550000
opls_145-251    C    0.94810009    0.98050002    0.61580055    -0.18020000
opls_145-252    C    0.91180018    0.82800015    0.63640028    0.19960000
opls_145-253    C    0.89540012    0.84840026    0.73790028    -0.17530000
opls_145-254    C    0.91480016    0.89160020    0.73580055    -0.13090000
opls_700-255    C    0.95089994    0.91500012    0.63259972    0.06950000
opls_145-256    C    0.96739991    0.89429997    0.53359972    -0.12480000
opls_145-257    C    0.94810018    0.85130016    0.53730055    -0.16060000
opls_700-258    C    0.83910009    0.71290013    0.65459972    0.06010000
opls_145-259    C    0.86610001    0.69730008    0.65050000    -0.16850000
opls_700-260    C    0.85110018    0.65470023    0.64030055    0.06160000
opls_145-261    C    0.80860022    0.62760020    0.63690028    -0.16930000
opls_700-262    C    0.78110012    0.64260016    0.63980055    0.06890000
opls_145-263    C    0.79670003    0.68540015    0.64750000    -0.16540000
opls_750-264    N    0.06580004    0.29480014    0.18669945    -0.33750000
opls_750-265    N    0.22419992    0.27069992    0.14150000    -0.33750000
opls_750-266    N    0.24849988    0.45329993    0.14919945    -0.34970000
opls_750-267    N    0.56580004    0.29480014    0.18669945    -0.33760000
opls_750-268    N    0.72419992    0.27069992    0.14150000    -0.33720000
opls_750-269    N    0.74849988    0.45329993    0.14919945    -0.34970000
opls_750-270    N    0.06580009    0.79479998    0.18669945    -0.33760000
opls_750-271    N    0.22420013    0.77070007    0.14150000    -0.33750000
opls_750-272    N    0.24850009    0.95330008    0.14919945    -0.34970000
opls_750-273    N    0.56580009    0.79479998    0.18669945    -0.33760000
opls_750-274    N    0.72420013    0.77070007    0.14150000    -0.33740000
opls_750-275    N    0.74850009    0.95330008    0.14919945    -0.34960000
opls_750-276    N    0.21030010    0.12629997    0.64869945    -0.33730000
opls_750-277    N    0.36809992    0.10080006    0.60280055    -0.34950000
opls_750-278    N    0.39309987    0.28389993    0.63359972    -0.34940000
opls_750-279    N    0.71030010    0.12629997    0.64869945    -0.33750000
opls_750-280    N    0.86809992    0.10080006    0.60280055    -0.34940000
opls_750-281    N    0.89309987    0.28389993    0.63359972    -0.34930000
opls_750-282    N    0.21030005    0.62630012    0.64869945    -0.33750000
opls_750-283    N    0.36810013    0.60080022    0.60280055    -0.34930000
opls_750-284    N    0.39310008    0.78390009    0.63359972    -0.34940000
opls_750-285    N    0.71030005    0.62630012    0.64869945    -0.33740000
opls_750-286    N    0.86810013    0.60080022    0.60280055    -0.34940000
opls_750-287    N    0.89310008    0.78390009    0.63359972    -0.34940000
opls_146-288    H    0.94579992    0.18339992    0.97009972    0.11800000
opls_146-289    H    0.02070019    0.22450017    0.98340028    0.12370000
opls_146-290    H    0.01240007    0.30859993    0.36269945    0.11660000
opls_146-291    H    0.93680005    0.26689990    0.35219945    0.11490000
opls_146-292    H    0.34230010    0.26819998    0.29309972    0.12110000
opls_146-293    H    0.30060020    0.30100019    0.29719945    0.12100000
opls_146-294    H    0.20570002    0.19950013    0.99340028    0.12090000
opls_146-295    H    0.24719999    0.66590017    0.98540028    0.12060000
opls_146-296    H    0.88200009    0.24979995    0.13080055    0.11780000
opls_146-297    H    0.88839994    0.63890005    0.16909972    0.11650000
opls_146-298    H    0.27129999    0.63180018    0.14390028    0.12200000
opls_146-299    H    0.22209988    0.50059993    0.32569945    0.11870000
opls_146-300    H    0.25579998    0.57550013    0.32259972    0.11800000
opls_146-301    H    0.85230014    0.58080006    0.97950000    0.11650000
opls_146-302    H    0.31800013    0.50520017    0.98409972    0.12090000
opls_144-303    H    0.08169996    0.25019990    0.13350000    0.09640000
opls_144-304    H    0.18810003    0.43790001    0.19309972    0.09800000
opls_146-305    H    0.25430016    0.38830020    0.17069945    0.12080000
opls_146-306    H    0.13090007    0.36640019    0.17469945    0.11850000
opls_144-307    H    0.26890011    0.33210007    0.17150000    0.10890000
opls_146-308    H    0.15280015    0.26420013    0.15350000    0.11630000
opls_146-309    H    0.44579992    0.18339992    0.97009972    0.11790000
opls_146-310    H    0.52070019    0.22450017    0.98340028    0.12370000
opls_146-311    H    0.51240007    0.30859993    0.36269945    0.11660000
opls_146-312    H    0.43680005    0.26689990    0.35219945    0.11490000
opls_146-313    H    0.84230010    0.26819998    0.29309972    0.12110000
opls_146-314    H    0.80060020    0.30100019    0.29719945    0.12100000
opls_146-315    H    0.70570002    0.19950013    0.99340028    0.12090000
opls_146-316    H    0.74719999    0.66590017    0.98540028    0.12060000
opls_146-317    H    0.38200009    0.24979995    0.13080055    0.11770000
opls_146-318    H    0.38839994    0.63890005    0.16909972    0.11650000
opls_146-319    H    0.77129999    0.63180018    0.14390028    0.12200000
opls_146-320    H    0.72209988    0.50059993    0.32569945    0.11870000
opls_146-321    H    0.75579998    0.57550013    0.32259972    0.11800000
opls_146-322    H    0.35230014    0.58080006    0.97950000    0.11650000
opls_146-323    H    0.81800013    0.50520017    0.98409972    0.12090000
opls_144-324    H    0.58169996    0.25019990    0.13350000    0.09640000
opls_144-325    H    0.68810003    0.43790001    0.19309972    0.09800000
opls_146-326    H    0.75430016    0.38830020    0.17069945    0.12080000
opls_146-327    H    0.63090007    0.36640019    0.17469945    0.11840000
opls_144-328    H    0.76890011    0.33210007    0.17150000    0.10890000
opls_146-329    H    0.65280015    0.26420013    0.15350000    0.11630000
opls_146-330    H    0.94580012    0.68340007    0.97009972    0.11790000
opls_146-331    H    0.02069998    0.72450002    0.98340028    0.12370000
opls_146-332    H    0.01240001    0.80860008    0.36269945    0.11660000
opls_146-333    H    0.93679999    0.76690005    0.35219945    0.11490000
opls_146-334    H    0.34230005    0.76820013    0.29309972    0.12110000
opls_146-335    H    0.30059999    0.80100004    0.29719945    0.12100000
opls_146-336    H    0.20570008    0.69949998    0.99340028    0.12090000
opls_146-337    H    0.24720005    0.16590001    0.98540028    0.12070000
opls_146-338    H    0.88200004    0.74980010    0.13080055    0.11770000
opls_146-339    H    0.88840000    0.13889990    0.16909972    0.11660000
opls_146-340    H    0.27130005    0.13180002    0.14390028    0.12210000
opls_146-341    H    0.22210009    0.00060008    0.32569945    0.11840000
opls_146-342    H    0.25580003    0.07549998    0.32259972    0.11800000
opls_146-343    H    0.85229993    0.08079991    0.97950000    0.11650000
opls_146-344    H    0.31799992    0.00520002    0.98409972    0.12090000
opls_144-345    H    0.08169991    0.75020005    0.13350000    0.09640000
opls_144-346    H    0.18809998    0.93790017    0.19309972    0.09810000
opls_146-347    H    0.25429995    0.88830004    0.17069945    0.12080000
opls_146-348    H    0.13090012    0.86640003    0.17469945    0.11840000
opls_144-349    H    0.26890006    0.83210022    0.17150000    0.10890000
opls_146-350    H    0.15279994    0.76419998    0.15350000    0.11640000
opls_146-351    H    0.44580012    0.68340007    0.97009972    0.11790000
opls_146-352    H    0.52069998    0.72450002    0.98340028    0.12370000
opls_146-353    H    0.51240001    0.80860008    0.36269945    0.11660000
opls_146-354    H    0.43679999    0.76690005    0.35219945    0.11490000
opls_146-355    H    0.84230005    0.76820013    0.29309972    0.12110000
opls_146-356    H    0.80059999    0.80100004    0.29719945    0.12100000
opls_146-357    H    0.70570008    0.69949998    0.99340028    0.12090000
opls_146-358    H    0.74720005    0.16590001    0.98540028    0.12060000
opls_146-359    H    0.38200004    0.74980010    0.13080055    0.11770000
opls_146-360    H    0.38840000    0.13889990    0.16909972    0.11650000
opls_146-361    H    0.77130005    0.13180002    0.14390028    0.12210000
opls_146-362    H    0.72210009    0.00060008    0.32569945    0.11840000
opls_146-363    H    0.75580003    0.07549998    0.32259972    0.11800000
opls_146-364    H    0.35229993    0.08079991    0.97950000    0.11650000
opls_146-365    H    0.81799992    0.00520002    0.98409972    0.12090000
opls_144-366    H    0.58169991    0.75020005    0.13350000    0.09640000
opls_144-367    H    0.68809998    0.93790017    0.19309972    0.09800000
opls_146-368    H    0.75429995    0.88830004    0.17069945    0.12090000
opls_146-369    H    0.63090012    0.86640003    0.17469945    0.11840000
opls_144-370    H    0.76890006    0.83210022    0.17150000    0.10900000
opls_146-371    H    0.65279994    0.76419998    0.15350000    0.11630000
opls_146-372    H    0.09000007    0.01140007    0.45740028    0.11670000
opls_146-373    H    0.16489993    0.05250002    0.46919945    0.12370000
opls_146-374    H    0.15710000    0.14379987    0.79969945    0.12170000
opls_146-375    H    0.08190009    0.10220005    0.79490028    0.11840000
opls_146-376    H    0.48100000    0.09280006    0.79440028    0.11660000
opls_146-377    H    0.43929989    0.12590001    0.79419945    0.12080000
opls_146-378    H    0.35389990    0.03409999    0.41809972    0.11700000
opls_146-379    H    0.39609991    0.50059993    0.41380055    0.11770000
opls_146-380    H    0.02509992    0.08030004    0.59590028    0.11790000
opls_146-381    H    0.03250010    0.46990001    0.64769945    0.11360000
opls_146-382    H    0.41489996    0.46220005    0.61409972    0.11580000
opls_146-383    H    0.36820019    0.33130016    0.82159972    0.12170000
opls_146-384    H    0.40199996    0.40669992    0.81719945    0.12310000
opls_146-385    H    0.99480006    0.41130016    0.45090028    0.11910000
opls_146-386    H    0.46109997    0.33580018    0.46019945    0.12060000
opls_144-387    H    0.22590001    0.08070000    0.62200000    0.11060000
opls_144-388    H    0.33299991    0.26819998    0.69150000    0.11050000
opls_146-389    H    0.39890001    0.21830012    0.65559972    0.11560000
opls_146-390    H    0.27589995    0.19740015    0.64750000    0.11890000
opls_144-391    H    0.41269995    0.16139999    0.65290028    0.09610000
opls_146-392    H    0.29689991    0.09460001    0.63219945    0.11530000
opls_146-393    H    0.59000007    0.01140007    0.45740028    0.11670000
opls_146-394    H    0.66489993    0.05250002    0.46919945    0.12370000
opls_146-395    H    0.65710000    0.14379987    0.79969945    0.12170000
opls_146-396    H    0.58190009    0.10220005    0.79490028    0.11840000
opls_146-397    H    0.98100000    0.09280006    0.79440028    0.11660000
opls_146-398    H    0.93929989    0.12590001    0.79419945    0.12080000
opls_146-399    H    0.85389990    0.03409999    0.41809972    0.11710000
opls_146-400    H    0.89609991    0.50059993    0.41380055    0.11770000
opls_146-401    H    0.52509992    0.08030004    0.59590028    0.11790000
opls_146-402    H    0.53250010    0.46990001    0.64769945    0.11360000
opls_146-403    H    0.91489996    0.46220005    0.61409972    0.11580000
opls_146-404    H    0.86820019    0.33130016    0.82159972    0.12170000
opls_146-405    H    0.90199996    0.40669992    0.81719945    0.12310000
opls_146-406    H    0.49490018    0.41130016    0.45090028    0.11600000
opls_146-407    H    0.96109997    0.33580018    0.46019945    0.12060000
opls_144-408    H    0.72590001    0.08070000    0.62200000    0.11050000
opls_144-409    H    0.83299991    0.26819998    0.69150000    0.11050000
opls_146-410    H    0.89890001    0.21830012    0.65559972    0.11560000
opls_146-411    H    0.77589995    0.19740015    0.64750000    0.11890000
opls_144-412    H    0.91269995    0.16139999    0.65290028    0.09610000
opls_146-413    H    0.79689991    0.09460001    0.63219945    0.11530000
opls_146-414    H    0.08999986    0.51139992    0.45740028    0.12190000
opls_146-415    H    0.16490014    0.55250017    0.46919945    0.12370000
opls_146-416    H    0.15709994    0.64380002    0.79969945    0.12180000
opls_146-417    H    0.08190003    0.60220021    0.79490028    0.11840000
opls_146-418    H    0.48100021    0.59280022    0.79440028    0.11660000
opls_146-419    H    0.43930010    0.62590017    0.79419945    0.12080000
opls_146-420    H    0.35390011    0.53410014    0.41809972    0.11700000
opls_146-421    H    0.39610012    0.00060008    0.41380055    0.11770000
opls_146-422    H    0.02510013    0.58030020    0.59590028    0.11790000
opls_146-423    H    0.03250005    0.96990017    0.64769945    0.11360000
opls_146-424    H    0.41490017    0.96220021    0.61409972    0.11580000
opls_146-425    H    0.36819998    0.83130000    0.82159972    0.12170000
opls_146-426    H    0.40199990    0.90670007    0.81719945    0.12330000
opls_146-427    H    0.99480012    0.91130000    0.45090028    0.11910000
opls_146-428    H    0.46110003    0.83580002    0.46019945    0.12060000
opls_144-429    H    0.22589995    0.58070015    0.62200000    0.11050000
opls_144-430    H    0.33300012    0.76820013    0.69150000    0.11050000
opls_146-431    H    0.39890007    0.71829997    0.65559972    0.11560000
opls_146-432    H    0.27590000    0.69739999    0.64750000    0.11890000
opls_144-433    H    0.41270016    0.66140015    0.65290028    0.09610000
opls_146-434    H    0.29690012    0.59460016    0.63219945    0.11530000
opls_146-435    H    0.58999986    0.51139992    0.45740028    0.12190000
opls_146-436    H    0.66490014    0.55250017    0.46919945    0.12380000
opls_146-437    H    0.65709994    0.64380002    0.79969945    0.12170000
opls_146-438    H    0.58190003    0.60220021    0.79490028    0.11840000
opls_146-439    H    0.98100021    0.59280022    0.79440028    0.11660000
opls_146-440    H    0.93930010    0.62590017    0.79419945    0.12080000
opls_146-441    H    0.85390011    0.53410014    0.41809972    0.11700000
opls_146-442    H    0.89610012    0.00060008    0.41380055    0.11770000
opls_146-443    H    0.52510013    0.58030020    0.59590028    0.11790000
opls_146-444    H    0.53250005    0.96990017    0.64769945    0.11370000
opls_146-445    H    0.91490017    0.96220021    0.61409972    0.11580000
opls_146-446    H    0.86819998    0.83130000    0.82159972    0.12170000
opls_146-447    H    0.90199990    0.90670007    0.81719945    0.12310000
opls_146-448    H    0.49489997    0.91130000    0.45090028    0.11600000
opls_146-449    H    0.96110003    0.83580002    0.46019945    0.12070000
opls_144-450    H    0.72589995    0.58070015    0.62200000    0.11050000
opls_144-451    H    0.83300012    0.76820013    0.69150000    0.11050000
opls_146-452    H    0.89890007    0.71829997    0.65559972    0.11560000
opls_146-453    H    0.77590000    0.69739999    0.64750000    0.11890000
opls_144-454    H    0.91270016    0.66140015    0.65290028    0.09610000
opls_146-455    H    0.79690012    0.59460016    0.63219945    0.11530000
