#======================================================================
# Crystal Data Generated By AuToFF
#----------------------------------------------------------------------

data_AuToFF_phase_1

_cell_length_a                         55.2900
_cell_length_b                         55.2900
_cell_length_c                         9.0000
_cell_angle_alpha                      90.00
_cell_angle_beta                       90.00
_cell_angle_gamma                      120.00
_symmetry_space_group_name_H-M_alt     'P 1'
_symmetry_space_group_IT_number        1

loop_
_space_group_symop_operation_xyz
   'x, y, z'

loop_
   _atom_site_label
   _atom_site_type_symbol
   _atom_site_fract_x
   _atom_site_fract_y
   _atom_site_fract_z
   _atom_site_charge
opls_700-0    C    0.50698010    0.47975003    0.27790000    -0.00440000
opls_700-1    C    0.53072005    0.50462006    0.31919000    -0.00440000
opls_700-2    C    0.53143010    0.53156015    0.36858000    0.06640000
opls_700-3    C    0.55938995    0.50778008    0.30525000    0.07140000
opls_700-4    C    0.50794011    0.45373011    0.23117000    0.06510000
opls_700-5    C    0.47793012    0.47610006    0.26325000    0.06480000
opls_145-6    C    0.55671005    0.55742010    0.36677000    -0.12520000
opls_145-7    C    0.55766004    0.58216001    0.40359000    -0.16040000
opls_145-8    C    0.53357002    0.58269006    0.44546000    0.23580000
opls_145-9    C    0.50873996    0.55694999    0.45781000    -0.16110000
opls_700-10    C    0.35526999    0.85325006    0.15929000    0.06570000
opls_142-11    C    0.91746003    0.35520004    0.12519000    0.07580000
opls_700-12    C    0.89036993    0.33016001    0.11162000    0.06350000
opls_142-13    C    0.64236993    0.11840997    0.22781000    0.07580000
opls_700-14    C    0.67089011    0.14126005    0.21774000    0.05940000
opls_145-15    C    0.69422998    0.13982007    0.26827000    -0.11270000
opls_145-16    C    0.72092012    0.16197010    0.25389000    -0.12170000
opls_700-17    C    0.72629997    0.18743012    0.18543000    0.06860000
opls_145-18    C    0.50789999    0.53215013    0.42302000    -0.11720000
opls_145-19    C    0.56977007    0.49672010    0.41130000    -0.11260000
opls_145-20    C    0.59603008    0.49977006    0.39619000    -0.16100000
opls_145-21    C    0.61425014    0.51632015    0.28332000    0.21010000
opls_145-22    C    0.60478000    0.52960014    0.18528000    -0.16930000
opls_145-23    C    0.57772003    0.52483995    0.19346000    -0.12500000
opls_145-24    C    0.47352001    0.49674015    0.19969000    -0.11380000
opls_145-25    C    0.44694997    0.49282995    0.18223000    -0.16130000
opls_145-26    C    0.42324000    0.46787013    0.22554000    0.20710000
opls_145-27    C    0.42751000    0.44683010    0.28572000    -0.16930000
opls_145-28    C    0.45411993    0.45069998    0.30307000    -0.12550000
opls_145-29    C    0.52236000    0.44318012    0.31147000    -0.12640000
opls_145-30    C    0.52205994    0.41902998    0.26962000    -0.16170000
opls_145-31    C    0.50605990    0.40291994    0.14904000    0.20590000
opls_145-32    C    0.48983996    0.41221999    0.07496000    -0.17280000
opls_145-33    C    0.49116010    0.43718002    0.11294000    -0.12550000
opls_142-34    C    0.66117990    0.53377995    0.18463000    0.08660000
opls_142-35    C    0.37353011    0.44733007    0.27150000    0.08060000
opls_700-36    C    0.68529999    0.53002013    0.18543000    0.06300000
opls_700-37    C    0.34871001    0.44945005    0.24743000    0.05970000
opls_145-38    C    0.68751005    0.51085009    0.27946000    -0.11270000
opls_145-39    C    0.71031995    0.50724001    0.27617000    -0.12510000
opls_700-40    C    0.73287000    0.52263999    0.17626000    0.06520000
opls_145-41    C    0.73073996    0.54242006    0.08371000    -0.12180000
opls_145-42    C    0.70775006    0.54575008    0.08870000    -0.11360000
opls_145-43    C    0.34737998    0.46809004    0.14548000    -0.11270000
opls_145-44    C    0.32368991    0.47000995    0.12887000    -0.12220000
opls_700-45    C    0.29944013    0.45366014    0.21656000    0.06820000
opls_145-46    C    0.30060008    0.43407012    0.31517000    -0.12940000
opls_145-47    C    0.32442003    0.43233003    0.32967000    -0.11100000
opls_700-48    C    0.75624998    0.51792010    0.16702000    0.06830000
opls_145-49    C    0.70248003    0.18888012    0.13796000    -0.12480000
opls_145-50    C    0.67594997    0.16656009    0.15358000    -0.11360000
opls_145-51    C    0.86662007    0.33016001    0.05519000    -0.11210000
opls_145-52    C    0.84104994    0.30617006    0.04857000    -0.12260000
opls_700-53    C    0.83720009    0.28019002    0.10202000    0.06790000
opls_145-54    C    0.86159996    0.28015995    0.15239000    -0.12220000
opls_145-55    C    0.88705006    0.30433995    0.15738000    -0.11170000
opls_145-56    C    0.16841009    0.66121012    0.34820000    -0.11440000
opls_145-57    C    0.19220006    0.68552002    0.31175000    -0.12390000
opls_700-58    C    0.19650005    0.71201006    0.35745000    0.07050000
opls_145-59    C    0.17564996    0.71156000    0.45233000    -0.12370000
opls_145-60    C    0.15197017    0.68694017    0.48912000    -0.11860000
opls_145-61    C    0.33691997    0.85591011    0.25756000    -0.11260000
opls_145-62    C    0.30918998    0.83588005    0.26745000    -0.12430000
opls_700-63    C    0.29774006    0.81094006    0.18187000    0.07250000
opls_145-64    C    0.31613010    0.80932006    0.07676000    -0.12400000
opls_145-65    C    0.34383016    0.82945015    0.06832000    -0.11210000
opls_700-66    C    0.22040014    0.73766012    0.30486000    0.07240000
opls_700-67    C    0.27035012    0.78711008    0.21344000    0.07200000
opls_700-68    C    0.75437005    0.21027999    0.16160000    0.06970000
opls_700-69    C    0.80970995    0.25594006    0.11652000    0.06830000
opls_145-70    C    0.77741994    0.21306994    0.24642000    -0.12420000
opls_145-71    C    0.80385006    0.23482004    0.22467000    -0.12520000
opls_145-72    C    0.78672996    0.25288007    0.03018000    -0.12500000
opls_145-73    C    0.76030991    0.23113999    0.05186000    -0.12440000
opls_145-74    C    0.23759006    0.73732012    0.18814000    -0.11680000
opls_145-75    C    0.26136004    0.76077000    0.14512000    -0.11280000
opls_145-76    C    0.25232015    0.78781013    0.32446000    -0.12540000
opls_145-77    C    0.22857007    0.76424016    0.36857000    -0.12430000
opls_700-78    C    0.27603000    0.45849009    0.21654000    0.07240000
opls_145-79    C    0.27916015    0.48473013    0.17283000    -0.12540000
opls_145-80    C    0.25807998    0.49056002    0.19012000    -0.12440000
opls_700-81    C    0.23175998    0.47061998    0.25157000    0.06830000
opls_145-82    C    0.22829989    0.44404996    0.29021000    -0.12410000
opls_145-83    C    0.24936999    0.43821004    0.27243000    -0.12490000
opls_700-84    C    0.20966008    0.47698013    0.27396000    0.06790000
opls_145-85    C    0.75393003    0.49220008    0.21397000    -0.12470000
opls_145-86    C    0.77609003    0.48784004    0.20742000    -0.12440000
opls_700-87    C    0.80270012    0.50883015    0.15429000    0.06820000
opls_145-88    C    0.80486998    0.53434007    0.10429000    -0.12400000
opls_145-89    C    0.78270000    0.53871996    0.11092000    -0.12500000
opls_700-90    C    0.82664004    0.50497008    0.15831000    0.06520000
opls_142-91    C    0.51612004    0.61359005    0.41938000    0.08090000
opls_700-92    C    0.52066998    0.64172013    0.42736000    0.06120000
opls_142-93    C    0.52372999    0.37155005    0.15229000    0.08230000
opls_700-94    C    0.51781012    0.34296009    0.14536000    0.06570000
opls_145-95    C    0.54282991    0.66369996    0.50583000    -0.11860000
opls_145-96    C    0.54664999    0.69024012    0.50644000    -0.11930000
opls_700-97    C    0.52813994    0.69656998    0.42693000    0.06460000
opls_145-98    C    0.50530004    0.67395005    0.35086000    -0.11800000
opls_145-99    C    0.50205000    0.64769016    0.35135000    -0.11210000
opls_145-100    C    0.49709006    0.32213997    0.05495000    -0.11250000
opls_145-101    C    0.49215010    0.29519006    0.05593000    -0.12190000
opls_700-102    C    0.50735005    0.28696995    0.15124000    0.06820000
opls_145-103    C    0.52870014    0.30840010    0.23965000    -0.12220000
opls_145-104    C    0.53365005    0.33530009    0.23544000    -0.11360000
opls_700-105    C    0.53293008    0.72440998    0.41372000    0.06520000
opls_700-106    C    0.50054002    0.25819996    0.16500000    0.06830000
opls_145-107    C    0.47371002    0.23559005    0.12521000    -0.12540000
opls_145-108    C    0.46681988    0.20846993    0.14769000    -0.12450000
opls_700-109    C    0.48615995    0.20146007    0.21106000    0.06830000
opls_145-110    C    0.51308992    0.22408001    0.24916000    -0.12490000
opls_145-111    C    0.51998996    0.25113998    0.22616000    -0.12310000
opls_145-112    C    0.56032014    0.74773017    0.38842000    -0.12260000
opls_145-113    C    0.56412013    0.77341010    0.35303000    -0.12510000
opls_700-114    C    0.54103008    0.77825007    0.34607000    0.06520000
opls_145-115    C    0.51382002    0.75516002    0.37643000    -0.12540000
opls_145-116    C    0.50997001    0.72942998    0.40909000    -0.12450000
opls_700-117    C    0.47965989    0.17287993    0.22872000    0.06510000
opls_700-118    C    0.54469006    0.80515006    0.31147000    0.06740000
opls_145-119    C    0.20783992    0.49768997    0.18825000    -0.12260000
opls_145-120    C    0.18561003    0.50210014    0.20288000    -0.11170000
opls_700-121    C    0.16376991    0.48678997    0.30389000    0.06350000
opls_145-122    C    0.16587014    0.46694014    0.39252000    -0.11110000
opls_145-123    C    0.18790004    0.46217014    0.37922000    -0.12260000
opls_145-124    C    0.56459995    0.82335001    0.20449000    -0.12690000
opls_145-125    C    0.56719999    0.84883007    0.17176000    -0.11270000
opls_700-126    C    0.55073007    0.85827005    0.24253000    0.05940000
opls_145-127    C    0.53115006    0.84041010    0.34844000    -0.11250000
opls_145-128    C    0.52799992    0.81483000    0.38216000    -0.12190000
opls_145-129    C    0.45995000    0.15106007    0.13537000    -0.12380000
opls_145-130    C    0.45774003    0.12517005    0.13454000    -0.11260000
opls_700-131    C    0.47433005    0.11885000    0.22717000    0.06120000
opls_145-132    C    0.49266000    0.13980002    0.32575000    -0.11210000
opls_145-133    C    0.49500999    0.16572011    0.32879000    -0.12780000
opls_145-134    C    0.82825996    0.48609994    0.26031000    -0.12180000
opls_145-135    C    0.85183003    0.48386009    0.27077000    -0.11370000
opls_700-136    C    0.87536998    0.49980995    0.18115000    0.06290000
opls_145-137    C    0.87379990    0.51811997    0.07797000    -0.11110000
opls_145-138    C    0.85042001    0.52070003    0.06615000    -0.12390000
opls_142-139    C    0.14048992    0.49188995    0.31011000    0.07470000
opls_142-140    C    0.55395008    0.88531018    0.20698000    0.08230000
opls_142-141    C    0.47213999    0.09169000    0.21674000    0.08250000
opls_142-142    C    0.89974994    0.49682995    0.20056000    0.08220000
opls_145-143    C    0.53757002    0.91783999    0.27253000    0.20910000
opls_145-144    C    0.09479010    0.47754004    0.37905000    0.22210000
opls_145-145    C    0.49318010    0.06370005    0.28059000    0.20710000
opls_145-146    C    0.94617010    0.51092006    0.15061000    0.23040000
opls_145-147    C    0.08710998    0.49435995    0.45970000    -0.16130000
opls_145-148    C    0.06256990    0.49427996    0.42741000    -0.11240000
opls_700-149    C    0.04498015    0.47851012    0.31013000    0.06480000
opls_145-150    C    0.05174001    0.46002008    0.23808000    -0.11720000
opls_145-151    C    0.07606002    0.45979014    0.27125000    -0.15900000
opls_145-152    C    0.55565011    0.94107017    0.18554000    -0.16830000
opls_145-153    C    0.55335011    0.96489012    0.18382000    -0.12470000
opls_700-154    C    0.53273999    0.96642012    0.26833000    0.07160000
opls_145-155    C    0.51516011    0.94344013    0.35704000    -0.12180000
opls_145-156    C    0.51736997    0.91965004    0.35840000    -0.15920000
opls_145-157    C    0.47686002    0.04079002    0.18757000    -0.16410000
opls_145-158    C    0.48111005    0.01820998    0.18115000    -0.11680000
opls_700-159    C    0.50188005    0.01739005    0.26736000    0.07270000
opls_145-160    C    0.51818001    0.04023993    0.35993000    -0.11680000
opls_145-161    C    0.51401994    0.06288994    0.36596000    -0.16110000
opls_145-162    C    0.95459002    0.49439002    0.07318000    -0.15900000
opls_145-163    C    0.97881008    0.49440005    0.11198000    -0.11370000
opls_700-164    C    0.99499991    0.50945000    0.23473000    0.06560000
opls_145-165    C    0.98745003    0.52747014    0.30550000    -0.11960000
opls_145-166    C    0.96357989    0.52798995    0.26457000    -0.16090000
opls_700-167    C    0.02004997    0.50664000    0.28117000    -0.00440000
opls_700-168    C    0.04623995    0.53373004    0.32419000    0.06520000
opls_700-169    C    0.53031014    0.99250019    0.26582000    -0.05890000
opls_700-170    C    0.47665009    0.96470008    0.26199000    0.06510000
opls_700-171    C    0.50476006    0.99160007    0.26457000    -0.00770000
opls_700-172    C    0.55820999    0.01953990    0.26694000    0.06530000
opls_700-173    C    0.01961014    0.48132012    0.26906000    -0.00420000
opls_700-174    C    0.99315001    0.45459013    0.22315000    0.06540000
opls_145-175    C    0.58090997    0.02133993    0.34717000    -0.12500000
opls_145-176    C    0.60657008    0.04572001    0.34852000    -0.16870000
opls_145-177    C    0.61099010    0.06949005    0.26940000    0.20570000
opls_145-178    C    0.58839001    0.06746008    0.18749000    -0.16010000
opls_145-179    C    0.56275998    0.04319006    0.18669000    -0.12250000
opls_145-180    C    0.96753998    0.44613005    0.29519000    -0.11170000
opls_145-181    C    0.94349003    0.42185001    0.25575000    -0.15840000
opls_145-182    C    0.94377009    0.40440002    0.14385000    0.23400000
opls_145-183    C    0.96895002    0.41320009    0.06762000    -0.16430000
opls_145-184    C    0.99279012    0.43808014    0.10306000    -0.12470000
opls_145-185    C    0.07147012    0.54279013    0.24754000    -0.11590000
opls_145-186    C    0.09476011    0.56833013    0.27783000    -0.16160000
opls_145-187    C    0.09414012    0.58630014    0.38539000    0.23370000
opls_145-188    C    0.06957011    0.57665007    0.46891000    -0.16650000
opls_145-189    C    0.04644000    0.55069008    0.44154000    -0.12390000
opls_145-190    C    0.45402008    0.96370013    0.33898000    -0.11720000
opls_145-191    C    0.42765998    0.94046013    0.33197000    -0.16200000
opls_145-192    C    0.42245009    0.91707019    0.24742000    0.21800000
opls_145-193    C    0.44514012    0.91762008    0.17379000    -0.16650000
opls_145-194    C    0.47156002    0.94092001    0.18073000    -0.11380000
opls_142-195    C    0.12164998    0.63514007    0.46883000    0.08060000
opls_700-196    C    0.14723006    0.66097016    0.43605000    0.06030000
opls_142-197    C    0.38474004    0.87359004    0.14895000    0.08580000
opls_700-198    C    0.50698010    0.47975003    0.77790000    -0.00440000
opls_700-199    C    0.53072005    0.50462006    0.81919000    -0.00440000
opls_700-200    C    0.53143010    0.53156015    0.86858000    0.06640000
opls_700-201    C    0.55938995    0.50778008    0.80525000    0.07140000
opls_700-202    C    0.50794011    0.45373011    0.73117000    0.06510000
opls_700-203    C    0.47793012    0.47610006    0.76325000    0.06480000
opls_145-204    C    0.55671005    0.55742010    0.86677000    -0.12520000
opls_145-205    C    0.55766004    0.58216001    0.90359000    -0.16040000
opls_145-206    C    0.53357002    0.58269006    0.94546000    0.23580000
opls_145-207    C    0.50873996    0.55694999    0.95781000    -0.16110000
opls_700-208    C    0.35526999    0.85325006    0.65929000    0.06570000
opls_142-209    C    0.91746003    0.35520004    0.62519000    0.07580000
opls_700-210    C    0.89036993    0.33016001    0.61162000    0.06350000
opls_142-211    C    0.64236993    0.11840997    0.72781000    0.07580000
opls_700-212    C    0.67089011    0.14126005    0.71774000    0.05940000
opls_145-213    C    0.69422998    0.13982007    0.76827000    -0.11270000
opls_145-214    C    0.72092012    0.16197010    0.75389000    -0.12190000
opls_700-215    C    0.72629997    0.18743012    0.68543000    0.06870000
opls_145-216    C    0.50789999    0.53215013    0.92302000    -0.11720000
opls_145-217    C    0.56977007    0.49672010    0.91130000    -0.11260000
opls_145-218    C    0.59603008    0.49977006    0.89619000    -0.16100000
opls_145-219    C    0.61425014    0.51632015    0.78332000    0.21010000
opls_145-220    C    0.60478000    0.52960014    0.68528000    -0.16930000
opls_145-221    C    0.57772003    0.52483995    0.69346000    -0.12500000
opls_145-222    C    0.47352001    0.49674015    0.69969000    -0.11380000
opls_145-223    C    0.44694997    0.49282995    0.68223000    -0.16130000
opls_145-224    C    0.42324000    0.46787013    0.72554000    0.20710000
opls_145-225    C    0.42751000    0.44683010    0.78572000    -0.16930000
opls_145-226    C    0.45411993    0.45069998    0.80307000    -0.12550000
opls_145-227    C    0.52236000    0.44318012    0.81147000    -0.12640000
opls_145-228    C    0.52205994    0.41902998    0.76962000    -0.16170000
opls_145-229    C    0.50605990    0.40291994    0.64904000    0.20590000
opls_145-230    C    0.48983996    0.41221999    0.57496000    -0.17280000
opls_145-231    C    0.49116010    0.43718002    0.61294000    -0.12550000
opls_142-232    C    0.66117990    0.53377995    0.68463000    0.08660000
opls_142-233    C    0.37353011    0.44733007    0.77150000    0.08060000
opls_700-234    C    0.68529999    0.53002013    0.68543000    0.06300000
opls_700-235    C    0.34871001    0.44945005    0.74743000    0.05970000
opls_145-236    C    0.68751005    0.51085009    0.77946000    -0.11270000
opls_145-237    C    0.71031995    0.50724001    0.77617000    -0.12400000
opls_700-238    C    0.73287000    0.52263999    0.67627000    0.06520000
opls_145-239    C    0.73073996    0.54242006    0.58371000    -0.12390000
opls_145-240    C    0.70775006    0.54575008    0.58870000    -0.11360000
opls_145-241    C    0.34737998    0.46809004    0.64548000    -0.11260000
opls_145-242    C    0.32368991    0.47000995    0.62887000    -0.12220000
opls_700-243    C    0.29944013    0.45366014    0.71656000    0.06820000
opls_145-244    C    0.30060008    0.43407012    0.81517000    -0.12930000
opls_145-245    C    0.32442003    0.43233003    0.82967000    -0.11110000
opls_700-246    C    0.75624998    0.51792010    0.66702000    0.06830000
opls_145-247    C    0.70248003    0.18888012    0.63796000    -0.12480000
opls_145-248    C    0.67594997    0.16656009    0.65358000    -0.11360000
opls_145-249    C    0.86662007    0.33016001    0.55519000    -0.11210000
opls_145-250    C    0.84104994    0.30617006    0.54857000    -0.12260000
opls_700-251    C    0.83720009    0.28019002    0.60202000    0.06790000
opls_145-252    C    0.86159996    0.28015995    0.65239000    -0.12220000
opls_145-253    C    0.88705006    0.30433995    0.65738000    -0.11170000
opls_145-254    C    0.16841009    0.66121012    0.84820000    -0.11440000
opls_145-255    C    0.19220006    0.68552002    0.81175000    -0.12390000
opls_700-256    C    0.19650005    0.71201006    0.85745000    0.07050000
opls_145-257    C    0.17564996    0.71156000    0.95233000    -0.12380000
opls_145-258    C    0.15197017    0.68694017    0.98912000    -0.11850000
opls_145-259    C    0.33691997    0.85591011    0.75756000    -0.11260000
opls_145-260    C    0.30918998    0.83588005    0.76745000    -0.12430000
opls_700-261    C    0.29774006    0.81094006    0.68187000    0.07250000
opls_145-262    C    0.31613010    0.80932006    0.57676000    -0.12400000
opls_145-263    C    0.34383016    0.82945015    0.56832000    -0.11210000
opls_700-264    C    0.22040014    0.73766012    0.80486000    0.07240000
opls_700-265    C    0.27035012    0.78711008    0.71344000    0.07200000
opls_700-266    C    0.75437005    0.21027999    0.66160000    0.06970000
opls_700-267    C    0.80970995    0.25594006    0.61652000    0.06830000
opls_145-268    C    0.77741994    0.21306994    0.74642000    -0.12430000
opls_145-269    C    0.80385006    0.23482004    0.72467000    -0.12520000
opls_145-270    C    0.78672996    0.25288007    0.53018000    -0.12500000
opls_145-271    C    0.76030991    0.23113999    0.55186000    -0.12440000
opls_145-272    C    0.23759006    0.73732012    0.68814000    -0.11680000
opls_145-273    C    0.26136004    0.76077000    0.64512000    -0.11280000
opls_145-274    C    0.25232015    0.78781013    0.82446000    -0.12540000
opls_145-275    C    0.22857007    0.76424016    0.86857000    -0.12430000
opls_700-276    C    0.27603000    0.45849009    0.71654000    0.07240000
opls_145-277    C    0.27916015    0.48473013    0.67283000    -0.12540000
opls_145-278    C    0.25807998    0.49056002    0.69012000    -0.12450000
opls_700-279    C    0.23175998    0.47061998    0.75157000    0.06830000
opls_145-280    C    0.22829989    0.44404996    0.79021000    -0.12400000
opls_145-281    C    0.24936999    0.43821004    0.77243000    -0.12490000
opls_700-282    C    0.20966008    0.47698013    0.77396000    0.06790000
opls_145-283    C    0.75393003    0.49220008    0.71397000    -0.12470000
opls_145-284    C    0.77609003    0.48784004    0.70742000    -0.12440000
opls_700-285    C    0.80270012    0.50883015    0.65429000    0.06820000
opls_145-286    C    0.80486998    0.53434007    0.60429000    -0.12400000
opls_145-287    C    0.78270000    0.53871996    0.61092000    -0.12500000
opls_700-288    C    0.82664004    0.50497008    0.65831000    0.06520000
opls_142-289    C    0.51612004    0.61359005    0.91938000    0.08090000
opls_700-290    C    0.52066998    0.64172013    0.92736000    0.06120000
opls_142-291    C    0.52372999    0.37155005    0.65229000    0.08230000
opls_700-292    C    0.51781012    0.34296009    0.64536000    0.06570000
opls_145-293    C    0.54282991    0.66369996    0.00583000    -0.11860000
opls_145-294    C    0.54664999    0.69024012    0.00644000    -0.11930000
opls_700-295    C    0.52813994    0.69656998    0.92693000    0.06460000
opls_145-296    C    0.50530004    0.67395005    0.85086000    -0.11800000
opls_145-297    C    0.50205000    0.64769016    0.85135000    -0.11200000
opls_145-298    C    0.49709006    0.32213997    0.55495000    -0.11240000
opls_145-299    C    0.49215010    0.29519006    0.55593000    -0.12190000
opls_700-300    C    0.50735005    0.28696995    0.65124000    0.06820000
opls_145-301    C    0.52870014    0.30840010    0.73965000    -0.12220000
opls_145-302    C    0.53365005    0.33530009    0.73544000    -0.11360000
opls_700-303    C    0.53293008    0.72440998    0.91372000    0.06520000
opls_700-304    C    0.50054002    0.25819996    0.66500000    0.06830000
opls_145-305    C    0.47371002    0.23559005    0.62521000    -0.12540000
opls_145-306    C    0.46681988    0.20846993    0.64769000    -0.12450000
opls_700-307    C    0.48615995    0.20146007    0.71106000    0.06830000
opls_145-308    C    0.51308992    0.22408001    0.74916000    -0.12490000
opls_145-309    C    0.51998996    0.25113998    0.72616000    -0.12310000
opls_145-310    C    0.56032014    0.74773017    0.88842000    -0.12260000
opls_145-311    C    0.56412013    0.77341010    0.85303000    -0.12510000
opls_700-312    C    0.54103008    0.77825007    0.84607000    0.06520000
opls_145-313    C    0.51382002    0.75516002    0.87643000    -0.12540000
opls_145-314    C    0.50997001    0.72942998    0.90909000    -0.12450000
opls_700-315    C    0.47965989    0.17287993    0.72872000    0.06520000
opls_700-316    C    0.54469006    0.80515006    0.81147000    0.06740000
opls_145-317    C    0.20783992    0.49768997    0.68825000    -0.12260000
opls_145-318    C    0.18561003    0.50210014    0.70288000    -0.11170000
opls_700-319    C    0.16376991    0.48678997    0.80389000    0.06360000
opls_145-320    C    0.16587014    0.46694014    0.89252000    -0.11110000
opls_145-321    C    0.18790004    0.46217014    0.87922000    -0.12260000
opls_145-322    C    0.56459995    0.82335001    0.70449000    -0.12690000
opls_145-323    C    0.56719999    0.84883007    0.67176000    -0.11270000
opls_700-324    C    0.55073007    0.85827005    0.74253000    0.05940000
opls_145-325    C    0.53115006    0.84041010    0.84844000    -0.11250000
opls_145-326    C    0.52799992    0.81483000    0.88216000    -0.12190000
opls_145-327    C    0.45995000    0.15106007    0.63537000    -0.12380000
opls_145-328    C    0.45774003    0.12517005    0.63454000    -0.11260000
opls_700-329    C    0.47433005    0.11885000    0.72717000    0.06120000
opls_145-330    C    0.49266000    0.13980002    0.82575000    -0.11210000
opls_145-331    C    0.49500999    0.16572011    0.82879000    -0.12780000
opls_145-332    C    0.82825996    0.48609994    0.76031000    -0.12180000
opls_145-333    C    0.85183003    0.48386009    0.77077000    -0.11370000
opls_700-334    C    0.87536998    0.49980995    0.68115000    0.06290000
opls_145-335    C    0.87379990    0.51811997    0.57797000    -0.11110000
opls_145-336    C    0.85042001    0.52070003    0.56615000    -0.12390000
opls_142-337    C    0.14048992    0.49188995    0.81011000    0.07470000
opls_142-338    C    0.55395008    0.88531018    0.70698000    0.08230000
opls_142-339    C    0.47213999    0.09169000    0.71674000    0.08250000
opls_142-340    C    0.89974994    0.49682995    0.70056000    0.08220000
opls_145-341    C    0.53757002    0.91783999    0.77253000    0.20910000
opls_145-342    C    0.09479010    0.47754004    0.87905000    0.22210000
opls_145-343    C    0.49318010    0.06370005    0.78059000    0.20700000
opls_145-344    C    0.94617010    0.51092006    0.65061000    0.23030000
opls_145-345    C    0.08710998    0.49435995    0.95970000    -0.16130000
opls_145-346    C    0.06256990    0.49427996    0.92741000    -0.11240000
opls_700-347    C    0.04498015    0.47851012    0.81013000    0.06480000
opls_145-348    C    0.05174001    0.46002008    0.73808000    -0.11720000
opls_145-349    C    0.07606002    0.45979014    0.77125000    -0.15900000
opls_145-350    C    0.55565011    0.94107017    0.68554000    -0.16830000
opls_145-351    C    0.55335011    0.96489012    0.68382000    -0.12470000
opls_700-352    C    0.53273999    0.96642012    0.76833000    0.07160000
opls_145-353    C    0.51516011    0.94344013    0.85704000    -0.12180000
opls_145-354    C    0.51736997    0.91965004    0.85840000    -0.15910000
opls_145-355    C    0.47686002    0.04079002    0.68757000    -0.16410000
opls_145-356    C    0.48111005    0.01820998    0.68115000    -0.11680000
opls_700-357    C    0.50188005    0.01739005    0.76736000    0.07270000
opls_145-358    C    0.51818001    0.04023993    0.85993000    -0.11670000
opls_145-359    C    0.51401994    0.06288994    0.86596000    -0.16110000
opls_145-360    C    0.95459002    0.49439002    0.57318000    -0.15900000
opls_145-361    C    0.97881008    0.49440005    0.61198000    -0.11370000
opls_700-362    C    0.99499991    0.50945000    0.73473000    0.06560000
opls_145-363    C    0.98745003    0.52747014    0.80550000    -0.11960000
opls_145-364    C    0.96357989    0.52798995    0.76457000    -0.16100000
opls_700-365    C    0.02004997    0.50664000    0.78117000    -0.00440000
opls_700-366    C    0.04623995    0.53373004    0.82419000    0.06520000
opls_700-367    C    0.53031014    0.99250019    0.76582000    -0.05890000
opls_700-368    C    0.47665009    0.96470008    0.76199000    0.06510000
opls_700-369    C    0.50476006    0.99160007    0.76457000    -0.00770000
opls_700-370    C    0.55820999    0.01953990    0.76694000    0.06530000
opls_700-371    C    0.01961014    0.48132012    0.76906000    -0.00420000
opls_700-372    C    0.99315001    0.45459013    0.72315000    0.06540000
opls_145-373    C    0.58090997    0.02133993    0.84717000    -0.12490000
opls_145-374    C    0.60657008    0.04572001    0.84852000    -0.16880000
opls_145-375    C    0.61099010    0.06949005    0.76940000    0.20580000
opls_145-376    C    0.58839001    0.06746008    0.68749000    -0.16010000
opls_145-377    C    0.56275998    0.04319006    0.68669000    -0.12250000
opls_145-378    C    0.96753998    0.44613005    0.79519000    -0.11170000
opls_145-379    C    0.94349003    0.42185001    0.75575000    -0.15840000
opls_145-380    C    0.94377009    0.40440002    0.64385000    0.23390000
opls_145-381    C    0.96895002    0.41320009    0.56762000    -0.16430000
opls_145-382    C    0.99279012    0.43808014    0.60306000    -0.12470000
opls_145-383    C    0.07147012    0.54279013    0.74754000    -0.11590000
opls_145-384    C    0.09476011    0.56833013    0.77783000    -0.16140000
opls_145-385    C    0.09414012    0.58630014    0.88539000    0.23380000
opls_145-386    C    0.06957011    0.57665007    0.96891000    -0.16650000
opls_145-387    C    0.04644000    0.55069008    0.94154000    -0.12390000
opls_145-388    C    0.45402008    0.96370013    0.83898000    -0.11720000
opls_145-389    C    0.42765998    0.94046013    0.83197000    -0.16200000
opls_145-390    C    0.42245009    0.91707019    0.74742000    0.21800000
opls_145-391    C    0.44514012    0.91762008    0.67379000    -0.16650000
opls_145-392    C    0.47156002    0.94092001    0.68073000    -0.11380000
opls_142-393    C    0.12164998    0.63514007    0.96883000    0.08060000
opls_700-394    C    0.14723006    0.66097016    0.93605000    0.06030000
opls_142-395    C    0.38474004    0.87359004    0.64895000    0.08580000
opls_750-396    N    0.63728991    0.09396995    0.27183000    -0.28150000
opls_750-397    N    0.91933992    0.37937002    0.11008000    -0.28370000
opls_750-398    N    0.53481998    0.60828999    0.47142000    -0.28350000
opls_750-399    N    0.64072001    0.51882001    0.27404000    -0.28580000
opls_750-400    N    0.50517004    0.37786007    0.10891000    -0.27910000
opls_750-401    N    0.39669008    0.46507015    0.20730000    -0.28510000
opls_750-402    N    0.12011002    0.47805004    0.40237000    -0.28840000
opls_750-403    N    0.48969002    0.08713009    0.28957000    -0.28170000
opls_750-404    N    0.53875005    0.89314017    0.27888000    -0.28260000
opls_750-405    N    0.92136005    0.51066004    0.11608000    -0.28360000
opls_750-406    N    0.11784996    0.61272000    0.40233000    -0.28520000
opls_750-407    N    0.39508007    0.89455008    0.23962000    -0.28370000
opls_750-408    N    0.63728991    0.09396995    0.77183000    -0.28150000
opls_750-409    N    0.91933992    0.37937002    0.61008000    -0.28360000
opls_750-410    N    0.53481998    0.60828999    0.97142000    -0.28350000
opls_750-411    N    0.64072001    0.51882001    0.77404000    -0.28580000
opls_750-412    N    0.50517004    0.37786007    0.60891000    -0.27910000
opls_750-413    N    0.39669008    0.46507015    0.70730000    -0.28500000
opls_750-414    N    0.12011002    0.47805004    0.90237000    -0.28850000
opls_750-415    N    0.48969002    0.08713009    0.78957000    -0.28190000
opls_750-416    N    0.53875005    0.89314017    0.77888000    -0.28250000
opls_750-417    N    0.92136005    0.51066004    0.61608000    -0.28350000
opls_750-418    N    0.11784996    0.61272000    0.90233000    -0.28520000
opls_750-419    N    0.39508007    0.89455008    0.73962000    -0.28370000
opls_146-420    H    0.57687008    0.55966998    0.33521000    0.07940000
opls_146-421    H    0.57767999    0.60180997    0.39493000    0.11730000
opls_146-422    H    0.48942999    0.55622008    0.49447000    0.06770000
opls_146-423    H    0.48781997    0.51306008    0.43920000    0.11170000
opls_146-424    H    0.55746993    0.48563004    0.50964000    0.08340000
opls_146-425    H    0.60285003    0.48956008    0.47747000    0.10900000
opls_146-426    H    0.61840008    0.54327005    0.09657000    0.06360000
opls_146-427    H    0.57103994    0.53516000    0.11213000    0.06920000
opls_146-428    H    0.49130004    0.51688006    0.16762000    0.10660000
opls_146-429    H    0.44458001    0.50981005    0.13432000    0.06980000
opls_146-430    H    0.40964995    0.42672005    0.31954000    0.11180000
opls_146-431    H    0.45588004    0.43315998    0.34754000    0.08360000
opls_146-432    H    0.53290016    0.45204014    0.41604000    0.11830000
opls_146-433    H    0.53400005    0.41225006    0.33849000    0.11160000
opls_146-434    H    0.47622003    0.39986997    0.98270000    0.10680000
opls_146-435    H    0.47834012    0.44360011    0.04985000    0.09150000
opls_144-436    H    0.66081998    0.54842997    0.10309000    0.06800000
opls_144-437    H    0.37186004    0.43128999    0.35000000    0.06910000
opls_146-438    H    0.67083990    0.49819997    0.35915000    0.06920000
opls_146-439    H    0.71089003    0.49217001    0.35371000    0.06920000
opls_146-440    H    0.74712000    0.55458002    0.00175000    0.06760000
opls_146-441    H    0.70706996    0.56088002    0.01206000    0.06920000
opls_146-442    H    0.36553000    0.48171003    0.07604000    0.11420000
opls_146-443    H    0.32408001    0.48512005    0.04809000    0.11420000
opls_146-444    H    0.28298001    0.42129010    0.38956000    0.07660000
opls_146-445    H    0.32429000    0.41751002    0.41163000    0.12090000
opls_146-446    H    0.29935992    0.50134997    0.13085000    0.10970000
opls_146-447    H    0.26198994    0.51143005    0.15884000    0.11160000
opls_146-448    H    0.20828010    0.42768011    0.33535000    0.06800000
opls_146-449    H    0.24558993    0.41749999    0.30632000    0.06920000
opls_146-450    H    0.73392007    0.47524004    0.25593000    0.06930000
opls_146-451    H    0.77314996    0.46766003    0.24566000    0.06920000
opls_146-452    H    0.82497003    0.55138011    0.06402000    0.07340000
opls_146-453    H    0.78570993    0.55901003    0.07444000    0.06760000
opls_144-454    H    0.49755007    0.59811008    0.35797000    0.06570000
opls_144-455    H    0.54307006    0.38631012    0.21051000    0.07000000
opls_146-456    H    0.55775995    0.65998003    0.56835000    0.12320000
opls_146-457    H    0.56435001    0.70690005    0.56782000    0.08280000
opls_146-458    H    0.49096996    0.67795004    0.28449000    0.10670000
opls_146-459    H    0.48461000    0.63131008    0.28726000    0.10590000
opls_146-460    H    0.48450009    0.32722011    0.98030000    0.09740000
opls_146-461    H    0.47586998    0.27986005    0.98200000    0.06920000
opls_146-462    H    0.54073997    0.30347993    0.31905000    0.10900000
opls_146-463    H    0.54994007    0.35069004    0.30934000    0.06320000
opls_146-464    H    0.45775006    0.23978010    0.07921000    0.10970000
opls_146-465    H    0.44580999    0.19182002    0.11609000    0.06920000
opls_146-466    H    0.52912003    0.21993006    0.29468000    0.10590000
opls_146-467    H    0.54110010    0.26763012    0.25714000    0.07530000
opls_146-468    H    0.57834998    0.74441999    0.38882000    0.12090000
opls_146-469    H    0.58532013    0.79080015    0.33147000    0.11730000
opls_146-470    H    0.49559008    0.75811016    0.37079000    0.10360000
opls_146-471    H    0.48869009    0.71197017    0.42800000    0.10590000
opls_146-472    H    0.22361007    0.50955004    0.10286000    0.11730000
opls_146-473    H    0.18500011    0.51777015    0.13009000    0.12320000
opls_146-474    H    0.14964997    0.45458010    0.47495000    0.10900000
opls_146-475    H    0.18840003    0.44646002    0.45200000    0.07660000
opls_146-476    H    0.57746992    0.81652999    0.14433000    0.08280000
opls_146-477    H    0.58249000    0.86181017    0.08667000    0.10360000
opls_146-478    H    0.51780003    0.84665016    0.40830000    0.10670000
opls_146-479    H    0.51274990    0.80187998    0.46757000    0.07550000
opls_146-480    H    0.44789002    0.15534995    0.05305000    0.11160000
opls_146-481    H    0.44314999    0.10957000    0.05501000    0.06320000
opls_146-482    H    0.50568003    0.13585996    0.40336000    0.09740000
opls_146-483    H    0.50995003    0.18132998    0.40704000    0.12320000
opls_146-484    H    0.81102012    0.47392014    0.33796000    0.06920000
opls_146-485    H    0.85201993    0.46942998    0.35430000    0.12320000
opls_146-486    H    0.89148999    0.53093006    0.00395000    0.10590000
opls_146-487    H    0.85034009    0.53521012    0.98285000    0.10590000
opls_144-488    H    0.14000008    0.50591009    0.22466000    0.06510000
opls_144-489    H    0.56926994    0.89810002    0.12143000    0.07000000
opls_144-490    H    0.45644002    0.07654001    0.13957000    0.06780000
opls_144-491    H    0.89932997    0.48360008    0.29324000    0.06470000
opls_146-492    H    0.10078004    0.50809001    0.54821000    0.07660000
opls_146-493    H    0.05703010    0.50721014    0.49448000    0.11180000
opls_146-494    H    0.03935998    0.44563008    0.14976000    0.11120000
opls_146-495    H    0.08106005    0.44586001    0.20757000    0.06550000
opls_146-496    H    0.57188004    0.94064016    0.11692000    0.06920000
opls_146-497    H    0.56796991    0.98245999    0.11436000    0.09100000
opls_146-498    H    0.49878005    0.94371999    0.42307000    0.11100000
opls_146-499    H    0.50291997    0.90193001    0.42819000    0.08290000
opls_146-500    H    0.46033010    0.04028003    0.11760000    0.07340000
opls_146-501    H    0.46749003    0.00078003    0.10819000    0.09490000
opls_146-502    H    0.53469993    0.04054004    0.42727000    0.11190000
opls_146-503    H    0.52727998    0.08040008    0.43998000    0.10900000
opls_146-504    H    0.94185003    0.48119001    0.98075000    0.06370000
opls_146-505    H    0.98525004    0.48208011    0.04561000    0.11140000
opls_146-506    H    0.99880001    0.54112000    0.39848000    0.11140000
opls_146-507    H    0.95788004    0.54156003    0.32649000    0.10590000
opls_146-508    H    0.57886998    0.00349000    0.41078000    0.08290000
opls_146-509    H    0.62370002    0.04633004    0.41367000    0.08280000
opls_146-510    H    0.59059000    0.08511996    0.12114000    0.11180000
opls_146-511    H    0.54600006    0.04330994    0.12367000    0.11160000
opls_146-512    H    0.96540992    0.45834995    0.38401000    0.11140000
opls_146-513    H    0.92404993    0.41597000    0.31646000    0.08280000
opls_146-514    H    0.96976988    0.40053995    0.97565000    0.10900000
opls_146-515    H    0.01089002    0.44443006    0.03053000    0.11930000
opls_146-516    H    0.07371000    0.53036013    0.16044000    0.11140000
opls_146-517    H    0.11377005    0.57490998    0.21158000    0.12330000
opls_146-518    H    0.06833003    0.58963998    0.55768000    0.11160000
opls_146-519    H    0.02855991    0.54408998    0.51606000    0.11930000
opls_146-520    H    0.45645007    0.98154004    0.40404000    0.09490000
opls_146-521    H    0.41049011    0.94072015    0.39226000    0.10360000
opls_146-522    H    0.44226006    0.89964004    0.10790000    0.07340000
opls_146-523    H    0.48833013    0.94003012    0.12192000    0.11060000
opls_144-524    H    0.10564999    0.63610013    0.53721000    0.06800000
opls_144-525    H    0.39707003    0.87045006    0.06295000    0.06760000
opls_144-526    H    0.93519005    0.35266007    0.15940000    0.06700000
opls_144-527    H    0.62600010    0.12281011    0.19076000    0.06820000
opls_146-528    H    0.69145999    0.12064001    0.32062000    0.06800000
opls_146-529    H    0.73828002    0.15929000    0.29261000    0.07340000
opls_146-530    H    0.70496992    0.20797999    0.08608000    0.06360000
opls_146-531    H    0.65847994    0.16883002    0.11223000    0.06920000
opls_146-532    H    0.86800997    0.34966002    0.01612000    0.11730000
opls_146-533    H    0.82307998    0.30777001    0.00931000    0.06500000
opls_146-534    H    0.86017008    0.26078003    0.19370000    0.11160000
opls_146-535    H    0.90494999    0.30317001    0.20200000    0.11420000
opls_146-536    H    0.16627001    0.64170009    0.30384000    0.10590000
opls_146-537    H    0.20743990    0.68370997    0.24139000    0.08960000
opls_146-538    H    0.17761992    0.73113999    0.49404000    0.07340000
opls_146-539    H    0.13638002    0.68800005    0.56051000    0.12090000
opls_146-540    H    0.34459005    0.87414014    0.33139000    0.12090000
opls_146-541    H    0.29673005    0.83899998    0.35233000    0.06360000
opls_146-542    H    0.30913003    0.79119007    0.00321000    0.08340000
opls_146-543    H    0.35702016    0.82648017    0.98730000    0.12320000
opls_146-544    H    0.77403010    0.19805006    0.33536000    0.12090000
opls_146-545    H    0.82054994    0.23656995    0.29816000    0.08290000
opls_146-546    H    0.79009000    0.26818001    0.94290000    0.08280000
opls_146-547    H    0.74357008    0.22968999    0.97975000    0.08280000
opls_146-548    H    0.23229000    0.71788005    0.12921000    0.06980000
opls_146-549    H    0.27372009    0.75825008    0.05727000    0.06360000
opls_146-550    H    0.25776002    0.80730011    0.38328000    0.06500000
opls_146-551    H    0.21646003    0.76611015    0.46030000    0.12090000
opls_146-552    H    0.57687008    0.55966998    0.83521000    0.07940000
opls_146-553    H    0.57767999    0.60180997    0.89493000    0.11730000
opls_146-554    H    0.48942999    0.55622008    0.99447000    0.06760000
opls_146-555    H    0.48781997    0.51306008    0.93920000    0.11170000
opls_146-556    H    0.55746993    0.48563004    0.00964000    0.08340000
opls_146-557    H    0.60285003    0.48956008    0.97747000    0.10900000
opls_146-558    H    0.61840008    0.54327005    0.59657000    0.06360000
opls_146-559    H    0.57103994    0.53516000    0.61213000    0.06920000
opls_146-560    H    0.49130004    0.51688006    0.66762000    0.10660000
opls_146-561    H    0.44458001    0.50981005    0.63432000    0.06980000
opls_146-562    H    0.40964995    0.42672005    0.81954000    0.11180000
opls_146-563    H    0.45588004    0.43315998    0.84754000    0.08360000
opls_146-564    H    0.53290016    0.45204014    0.91604000    0.11830000
opls_146-565    H    0.53400005    0.41225006    0.83849000    0.11160000
opls_146-566    H    0.47622003    0.39986997    0.48270000    0.10670000
opls_146-567    H    0.47834012    0.44360011    0.54985000    0.09150000
opls_144-568    H    0.66081998    0.54842997    0.60309000    0.06800000
opls_144-569    H    0.37186004    0.43128999    0.85000000    0.06910000
opls_146-570    H    0.67083990    0.49819997    0.85915000    0.06920000
opls_146-571    H    0.71089003    0.49217001    0.85371000    0.06920000
opls_146-572    H    0.74712000    0.55458002    0.50175000    0.06760000
opls_146-573    H    0.70706996    0.56088002    0.51206000    0.06920000
opls_146-574    H    0.36553000    0.48171003    0.57604000    0.11420000
opls_146-575    H    0.32408001    0.48512005    0.54809000    0.11420000
opls_146-576    H    0.28298001    0.42129010    0.88956000    0.07660000
opls_146-577    H    0.32429000    0.41751002    0.91163000    0.12100000
opls_146-578    H    0.29935992    0.50134997    0.63085000    0.10970000
opls_146-579    H    0.26198994    0.51143005    0.65884000    0.11160000
opls_146-580    H    0.20828010    0.42768011    0.83535000    0.06800000
opls_146-581    H    0.24558993    0.41749999    0.80632000    0.06920000
opls_146-582    H    0.73392007    0.47524004    0.75593000    0.06920000
opls_146-583    H    0.77314996    0.46766003    0.74566000    0.06920000
opls_146-584    H    0.82497003    0.55138011    0.56402000    0.07340000
opls_146-585    H    0.78570993    0.55901003    0.57444000    0.06760000
opls_144-586    H    0.49755007    0.59811008    0.85797000    0.06570000
opls_144-587    H    0.54307006    0.38631012    0.71051000    0.07000000
opls_146-588    H    0.55775995    0.65998003    0.06835000    0.12320000
opls_146-589    H    0.56435001    0.70690005    0.06782000    0.08280000
opls_146-590    H    0.49096996    0.67795004    0.78449000    0.10670000
opls_146-591    H    0.48461000    0.63131008    0.78726000    0.10590000
opls_146-592    H    0.48450009    0.32722011    0.48030000    0.09740000
opls_146-593    H    0.47586998    0.27986005    0.48200000    0.06920000
opls_146-594    H    0.54073997    0.30347993    0.81905000    0.10900000
opls_146-595    H    0.54994007    0.35069004    0.80934000    0.06320000
opls_146-596    H    0.45775006    0.23978010    0.57921000    0.10980000
opls_146-597    H    0.44580999    0.19182002    0.61609000    0.06920000
opls_146-598    H    0.52912003    0.21993006    0.79468000    0.10590000
opls_146-599    H    0.54110010    0.26763012    0.75714000    0.07530000
opls_146-600    H    0.57834998    0.74441999    0.88882000    0.12090000
opls_146-601    H    0.58532013    0.79080015    0.83147000    0.11730000
opls_146-602    H    0.49559008    0.75811016    0.87078000    0.10360000
opls_146-603    H    0.48869009    0.71197017    0.92800000    0.10590000
opls_146-604    H    0.22361007    0.50955004    0.60286000    0.11730000
opls_146-605    H    0.18500011    0.51777015    0.63009000    0.12320000
opls_146-606    H    0.14964997    0.45458010    0.97495000    0.10900000
opls_146-607    H    0.18840003    0.44646002    0.95200000    0.07660000
opls_146-608    H    0.57746992    0.81652999    0.64433000    0.08280000
opls_146-609    H    0.58249000    0.86181017    0.58667000    0.10360000
opls_146-610    H    0.51780003    0.84665016    0.90830000    0.10670000
opls_146-611    H    0.51274990    0.80187998    0.96757000    0.07550000
opls_146-612    H    0.44789002    0.15534995    0.55305000    0.11160000
opls_146-613    H    0.44314999    0.10957000    0.55501000    0.06320000
opls_146-614    H    0.50568003    0.13585996    0.90336000    0.09740000
opls_146-615    H    0.50995003    0.18132998    0.90704000    0.12320000
opls_146-616    H    0.81102012    0.47392014    0.83796000    0.06920000
opls_146-617    H    0.85201993    0.46942998    0.85430000    0.12320000
opls_146-618    H    0.89148999    0.53093006    0.50395000    0.10590000
opls_146-619    H    0.85034009    0.53521012    0.48285000    0.10590000
opls_144-620    H    0.14000008    0.50591009    0.72466000    0.06510000
opls_144-621    H    0.56926994    0.89810002    0.62143000    0.07000000
opls_144-622    H    0.45644002    0.07654001    0.63957000    0.06780000
opls_144-623    H    0.89932997    0.48360008    0.79324000    0.06480000
opls_146-624    H    0.10078004    0.50809001    0.04820000    0.10970000
opls_146-625    H    0.05703010    0.50721014    0.99448000    0.11180000
opls_146-626    H    0.03935998    0.44563008    0.64976000    0.11120000
opls_146-627    H    0.08106005    0.44586001    0.70757000    0.06550000
opls_146-628    H    0.57188004    0.94064016    0.61692000    0.06920000
opls_146-629    H    0.56796991    0.98245999    0.61436000    0.09100000
opls_146-630    H    0.49878005    0.94371999    0.92307000    0.11100000
opls_146-631    H    0.50291997    0.90193001    0.92819000    0.08280000
opls_146-632    H    0.46033010    0.04028003    0.61760000    0.07340000
opls_146-633    H    0.46749003    0.00078003    0.60819000    0.09490000
opls_146-634    H    0.53469993    0.04054004    0.92727000    0.11180000
opls_146-635    H    0.52727998    0.08040008    0.93998000    0.10900000
opls_146-636    H    0.94185003    0.48119001    0.48075000    0.06360000
opls_146-637    H    0.98525004    0.48208011    0.54561000    0.11140000
opls_146-638    H    0.99880001    0.54112000    0.89848000    0.11150000
opls_146-639    H    0.95788004    0.54156003    0.82649000    0.10600000
opls_146-640    H    0.57886998    0.00349000    0.91078000    0.08290000
opls_146-641    H    0.62370002    0.04633004    0.91367000    0.08280000
opls_146-642    H    0.59059000    0.08511996    0.62114000    0.11180000
opls_146-643    H    0.54600006    0.04330994    0.62367000    0.11160000
opls_146-644    H    0.96540992    0.45834995    0.88401000    0.11130000
opls_146-645    H    0.92404993    0.41597000    0.81646000    0.08280000
opls_146-646    H    0.96976988    0.40053995    0.47565000    0.10900000
opls_146-647    H    0.01089002    0.44443006    0.53053000    0.11930000
opls_146-648    H    0.07371000    0.53036013    0.66044000    0.11140000
opls_146-649    H    0.11377005    0.57490998    0.71158000    0.12320000
opls_146-650    H    0.06833003    0.58963998    0.05768000    0.11160000
opls_146-651    H    0.02855991    0.54408998    0.01606000    0.11930000
opls_146-652    H    0.45645007    0.98154004    0.90404000    0.09500000
opls_146-653    H    0.41049011    0.94072015    0.89226000    0.10360000
opls_146-654    H    0.44226006    0.89964004    0.60790000    0.07340000
opls_146-655    H    0.48833013    0.94003012    0.62192000    0.11060000
opls_144-656    H    0.10564999    0.63610013    0.03721000    0.06800000
opls_144-657    H    0.39707003    0.87045006    0.56295000    0.06760000
opls_144-658    H    0.93519005    0.35266007    0.65940000    0.06700000
opls_144-659    H    0.62600010    0.12281011    0.69076000    0.06820000
opls_146-660    H    0.69145999    0.12064001    0.82062000    0.06800000
opls_146-661    H    0.73828002    0.15929000    0.79261000    0.07340000
opls_146-662    H    0.70496992    0.20797999    0.58608000    0.06360000
opls_146-663    H    0.65847994    0.16883002    0.61223000    0.06920000
opls_146-664    H    0.86800997    0.34966002    0.51612000    0.11730000
opls_146-665    H    0.82307998    0.30777001    0.50931000    0.06500000
opls_146-666    H    0.86017008    0.26078003    0.69370000    0.11170000
opls_146-667    H    0.90494999    0.30317001    0.70200000    0.11420000
opls_146-668    H    0.16627001    0.64170009    0.80384000    0.10590000
opls_146-669    H    0.20743990    0.68370997    0.74139000    0.08960000
opls_146-670    H    0.17761992    0.73113999    0.99404000    0.07340000
opls_146-671    H    0.13638002    0.68800005    0.06051000    0.12090000
opls_146-672    H    0.34459005    0.87414014    0.83139000    0.12090000
opls_146-673    H    0.29673005    0.83899998    0.85233000    0.06360000
opls_146-674    H    0.30913003    0.79119007    0.50321000    0.08350000
opls_146-675    H    0.35702016    0.82648017    0.48730000    0.12320000
opls_146-676    H    0.77403010    0.19805006    0.83536000    0.12090000
opls_146-677    H    0.82054994    0.23656995    0.79816000    0.08280000
opls_146-678    H    0.79009000    0.26818001    0.44290000    0.08280000
opls_146-679    H    0.74357008    0.22968999    0.47975000    0.08280000
opls_146-680    H    0.23229000    0.71788005    0.62921000    0.06980000
opls_146-681    H    0.27372009    0.75825008    0.55727000    0.06360000
opls_146-682    H    0.25776002    0.80730011    0.88328000    0.06500000
opls_146-683    H    0.21646003    0.76611015    0.96030000    0.12090000
