#======================================================================
# Crystal Data Generated By AuToFF
#----------------------------------------------------------------------

data_AuToFF_phase_1

_cell_length_a                         26.4000
_cell_length_b                         39.0000
_cell_length_c                         19.0000
_cell_angle_alpha                      90.00
_cell_angle_beta                       88.20
_cell_angle_gamma                      90.00
_symmetry_space_group_name_H-M_alt     'P 1'
_symmetry_space_group_IT_number        1

loop_
_space_group_symop_operation_xyz
   'x, y, z'

loop_
   _atom_site_label
   _atom_site_type_symbol
   _atom_site_fract_x
   _atom_site_fract_y
   _atom_site_fract_z
   _atom_site_charge
opls_750-0    N    0.30341988    0.35493000    0.14457980    -0.21660000
opls_750-1    N    0.15220015    0.16716000    0.15812017    -0.21660000
opls_750-2    N    0.65206021    0.66736000    0.14422015    -0.21660000
opls_750-3    N    0.80323991    0.85489000    0.15863990    -0.21660000
opls_750-4    N    0.65313014    0.35500000    0.15934024    -0.21720000
opls_750-5    N    0.80405021    0.16715000    0.14353981    -0.21660000
opls_750-6    N    0.30397988    0.66728000    0.15900007    -0.21660000
opls_750-7    N    0.15313004    0.85487000    0.14278997    -0.21660000
opls_750-8    N    0.29458998    0.59938000    0.63486026    -0.21660000
opls_750-9    N    0.14337018    0.41161000    0.64837009    -0.21660000
opls_750-10    N    0.64320006    0.91186000    0.63490028    -0.21660000
opls_750-11    N    0.79438007    0.09938000    0.64929002    -0.21660000
opls_750-12    N    0.64250995    0.59952000    0.65017993    -0.21660000
opls_750-13    N    0.79342023    0.41167000    0.63436002    -0.21720000
opls_750-14    N    0.29332007    0.91174000    0.65000037    -0.21660000
opls_750-15    N    0.14248000    0.09933000    0.63376025    -0.21660000
opls_142-16    C    0.33979993    0.36165000    0.10001990    0.09220000
opls_700-17    C    0.36608991    0.39336000    0.10807019    0.07740000
opls_145-18    C    0.40995989    0.39957000    0.06775977    -0.12800000
opls_145-19    C    0.43872985    0.42823000    0.08256023    -0.06860000
opls_700-20    C    0.42348021    0.44989000    0.13799023    0.11620000
opls_145-21    C    0.37888986    0.44408000    0.17699001    -0.09620000
opls_145-22    C    0.35035997    0.41563000    0.16226011    -0.12880000
opls_700-23    C    0.45178021    0.48046000    0.15105984    0.04040000
opls_142-24    C    0.11591004    0.16044000    0.20284014    0.09220000
opls_700-25    C    0.08980986    0.12863000    0.19514002    0.07740000
opls_145-26    C    0.04598021    0.12239000    0.23550995    -0.12250000
opls_145-27    C    0.01740004    0.09360000    0.22101016    -0.06860000
opls_700-28    C    0.03283002    0.07185000    0.16583029    0.11690000
opls_145-29    C    0.07740015    0.07767000    0.12681998    -0.09630000
opls_145-30    C    0.10573015    0.10625000    0.14126026    -0.12880000
opls_700-31    C    0.00456002    0.04128000    0.15269012    0.04040000
opls_136-32    C    0.13736004    0.22678000    0.14096012    0.07280000
opls_136-33    C    0.21851010    0.19586000    0.09652028    0.07100000
opls_139-34    C    0.17815007    0.19934000    0.15685007    0.16700000
opls_136-35    C    0.25356993    0.31821000    0.07256003    0.07280000
opls_136-36    C    0.31822012    0.29529000    0.16160978    0.07280000
opls_136-37    C    0.23706020    0.32622000    0.20605014    0.07100000
opls_139-38    C    0.27743987    0.32274000    0.14573984    0.16710000
opls_136-39    C    0.20205000    0.20389000    0.23000987    0.07280000
opls_142-40    C    0.61788000    0.66053000    0.09941013    0.09010000
opls_700-41    C    0.59149006    0.62871000    0.10730982    0.07740000
opls_145-42    C    0.54948017    0.62231000    0.06697991    -0.12880000
opls_145-43    C    0.52032991    0.59352000    0.08171982    -0.06840000
opls_700-44    C    0.53334003    0.57193000    0.13706977    0.11690000
opls_145-45    C    0.57613020    0.57792000    0.17606008    -0.09630000
opls_145-46    C    0.60503001    0.60649000    0.16139020    -0.12940000
opls_700-47    C    0.50457013    0.54135000    0.15045006    0.04060000
opls_142-48    C    0.83743989    0.86169000    0.20342990    0.09010000
opls_700-49    C    0.86406997    0.89341000    0.19538014    0.07740000
opls_145-50    C    0.90606994    0.89971000    0.23578009    -0.10240000
opls_145-51    C    0.93551011    0.92835000    0.22090011    -0.06840000
opls_700-52    C    0.92279019    0.94989000    0.16533004    0.11690000
opls_145-53    C    0.88002999    0.94400000    0.12622021    -0.09630000
opls_145-54    C    0.85085012    0.91556000    0.14103015    -0.13200000
opls_700-55    C    0.95169004    0.98043000    0.15214985    0.04060000
opls_136-56    C    0.81869015    0.79520000    0.14184002    0.07280000
opls_136-57    C    0.73987021    0.82622000    0.09665982    0.07100000
opls_139-58    C    0.77725021    0.82274000    0.15732978    0.16700000
opls_136-59    C    0.70548994    0.70393000    0.07263007    0.07280000
opls_136-60    C    0.63655998    0.72705000    0.16107004    0.07280000
opls_136-61    C    0.71538007    0.69604000    0.20626025    0.07100000
opls_139-62    C    0.67800999    0.69952000    0.14557029    0.16690000
opls_136-63    C    0.74977019    0.81833000    0.23029001    0.07280000
opls_142-64    C    0.61671995    0.36155000    0.20401019    0.08980000
opls_700-65    C    0.59041020    0.39328000    0.19670027    0.07740000
opls_145-66    C    0.54663014    0.39933000    0.23733980    -0.13200000
opls_145-67    C    0.51783994    0.42806000    0.22330024    -0.06820000
opls_700-68    C    0.53298995    0.44994000    0.16828992    0.11690000
opls_145-69    C    0.57748987    0.44429000    0.12894998    -0.09630000
opls_145-70    C    0.60603990    0.41577000    0.14294004    -0.11490000
opls_700-71    C    0.50456017    0.48050000    0.15575005    0.04040000
opls_142-72    C    0.84046987    0.16059000    0.09891989    0.09060000
opls_700-73    C    0.86661015    0.12878000    0.10616978    0.07740000
opls_145-74    C    0.91042986    0.12266000    0.06566979    -0.13200000
opls_145-75    C    0.93900011    0.09382000    0.07966986    -0.06860000
opls_700-76    C    0.92357016    0.07190000    0.13448007    0.11690000
opls_145-77    C    0.87901991    0.07762000    0.17364994    -0.09630000
opls_145-78    C    0.85070019    0.10625000    0.15970990    -0.11490000
opls_700-79    C    0.95185003    0.04129000    0.14715001    0.04040000
opls_136-80    C    0.81891015    0.22671000    0.16179988    0.07280000
opls_136-81    C    0.73757002    0.19571000    0.20523027    0.07100000
opls_139-82    C    0.77814017    0.19935000    0.14519010    0.16710000
opls_136-83    C    0.70272989    0.31802000    0.23094981    0.07280000
opls_136-84    C    0.63830005    0.29545000    0.14110019    0.07280000
opls_136-85    C    0.71964018    0.32645000    0.09766980    0.07100000
opls_139-86    C    0.67907003    0.32281000    0.15770996    0.16710000
opls_136-87    C    0.75447993    0.20414000    0.07195026    0.07280000
opls_142-88    C    0.33818986    0.66071000    0.20390014    0.09220000
opls_700-89    C    0.36463020    0.62888000    0.19672028    0.07740000
opls_145-90    C    0.40652007    0.62273000    0.23739983    -0.12250000
opls_145-91    C    0.43569005    0.59386000    0.22347980    -0.06850000
opls_700-92    C    0.42277998    0.57193000    0.16858007    0.11690000
opls_145-93    C    0.38012020    0.57768000    0.12920010    -0.09630000
opls_145-94    C    0.35120007    0.60634000    0.14306010    -0.12880000
opls_700-95    C    0.45163011    0.54132000    0.15594014    0.04060000
opls_142-96    C    0.11883014    0.86147000    0.09802997    0.09220000
opls_700-97    C    0.09220015    0.89320000    0.10564005    0.07740000
opls_145-98    C    0.05023993    0.89934000    0.06509003    -0.12250000
opls_145-99    C    0.02083002    0.92806000    0.07946976    -0.06860000
opls_700-100    C    0.03355011    0.94984000    0.13473020    0.11620000
opls_145-101    C    0.07626003    0.94409000    0.17402012    -0.09630000
opls_145-102    C    0.10541012    0.91558000    0.15968989    -0.12810000
opls_700-103    C    0.00466015    0.98043000    0.14749018    0.04040000
opls_136-104    C    0.13762000    0.79527000    0.16055979    0.07280000
opls_136-105    C    0.21667020    0.82640000    0.20482006    0.07100000
opls_139-106    C    0.17907985    0.82271000    0.14444026    0.16710000
opls_136-107    C    0.25078988    0.70418000    0.23029001    0.07290000
opls_136-108    C    0.31951990    0.72688000    0.14111019    0.07280000
opls_136-109    C    0.24047992    0.69575000    0.09684992    0.07100000
opls_139-110    C    0.27805996    0.69945000    0.15725026    0.16710000
opls_136-111    C    0.20632994    0.81799000    0.07137998    0.07280000
opls_145-112    C    0.42538991    0.51087000    0.15368008    -0.12800000
opls_145-113    C    0.53088012    0.51095000    0.15294024    -0.12800000
opls_145-114    C    0.03091996    0.01085000    0.15028999    -0.12320000
opls_145-115    C    0.92545985    0.01086000    0.14943009    -0.12800000
opls_142-116    C    0.33091002    0.60610000    0.59019032    0.09220000
opls_700-117    C    0.35699005    0.63792000    0.59790992    0.07740000
opls_145-118    C    0.40088002    0.64415000    0.55767005    -0.12250000
opls_145-119    C    0.42941011    0.67297000    0.57219038    -0.06860000
opls_700-120    C    0.41386004    0.69475000    0.62727020    0.11620000
opls_145-121    C    0.36922999    0.68892000    0.66614992    -0.09630000
opls_145-122    C    0.34095005    0.66032000    0.65169015    -0.10240000
opls_700-123    C    0.44207012    0.72535000    0.64043038    0.04040000
opls_142-124    C    0.10702028    0.40489000    0.69297000    0.09010000
opls_700-125    C    0.08070014    0.37319000    0.68493024    0.07740000
opls_145-126    C    0.03688996    0.36697000    0.72536020    -0.12810000
opls_145-127    C    0.00807014    0.33833000    0.71057027    -0.06860000
opls_700-128    C    0.02320015    0.31671000    0.65502022    0.11620000
opls_145-129    C    0.06774018    0.32252000    0.61590038    -0.09620000
opls_145-130    C    0.09632007    0.35095000    0.63063028    -0.12880000
opls_700-131    C    0.99483008    0.28617000    0.64195008    0.04040000
opls_136-132    C    0.12856993    0.47124000    0.63134010    0.07280000
opls_136-133    C    0.20973022    0.44031000    0.58690027    0.07100000
opls_139-134    C    0.16935019    0.44379000    0.64721004    0.16710000
opls_136-135    C    0.24475021    0.56265000    0.56296003    0.07280000
opls_136-136    C    0.30943016    0.53975000    0.65200030    0.07280000
opls_136-137    C    0.22828025    0.57068000    0.69645014    0.07100000
opls_139-138    C    0.26865013    0.56719000    0.63612036    0.16700000
opls_136-139    C    0.19322996    0.44833000    0.72039038    0.07280000
opls_142-140    C    0.60899001    0.90505000    0.59012028    0.09010000
opls_700-141    C    0.58235015    0.87334000    0.59815003    0.07740000
opls_145-142    C    0.54044024    0.86700000    0.55762003    -0.10240000
opls_145-143    C    0.51103991    0.83833000    0.57237994    -0.06840000
opls_700-144    C    0.52370021    0.81680000    0.62799003    0.11690000
opls_145-145    C    0.56637005    0.82273000    0.66725994    -0.09630000
opls_145-146    C    0.59552016    0.85119000    0.65256005    -0.10240000
opls_700-147    C    0.49483005    0.78623000    0.64108018    0.04060000
opls_142-148    C    0.82856027    0.10622000    0.69410003    0.09010000
opls_700-149    C    0.85495013    0.13803000    0.68617033    0.07740000
opls_145-150    C    0.89704016    0.14440000    0.72634016    -0.12880000
opls_145-151    C    0.92623025    0.17316000    0.71148019    -0.06840000
opls_700-152    C    0.91315998    0.19475000    0.65616025    0.11690000
opls_145-153    C    0.87027998    0.18881000    0.61734003    -0.09630000
opls_145-154    C    0.84134996    0.16026000    0.63213997    -0.13200000
opls_700-155    C    0.94195017    0.22532000    0.64266991    0.04060000
opls_136-156    C    0.80988992    0.03969000    0.63245013    0.07280000
opls_136-157    C    0.73105997    0.07070000    0.58725992    0.07100000
opls_139-158    C    0.76844012    0.06722000    0.64794040    0.16700000
opls_136-159    C    0.69667001    0.94841000    0.56324017    0.07280000
opls_136-160    C    0.62775028    0.97154000    0.65168015    0.07280000
opls_136-161    C    0.70658022    0.94052000    0.69687035    0.07100000
opls_139-162    C    0.66918998    0.94400000    0.63620040    0.16700000
opls_136-163    C    0.74095011    0.06281000    0.72089010    0.07290000
opls_142-164    C    0.60610005    0.60611000    0.69482039    0.08980000
opls_700-165    C    0.58001016    0.63793000    0.68756997    0.07740000
opls_145-166    C    0.53609026    0.64403000    0.72786039    -0.13200000
opls_145-167    C    0.50752022    0.67285000    0.71375026    -0.06860000
opls_700-168    C    0.52306026    0.69480000    0.65903009    0.11690000
opls_145-169    C    0.56773008    0.68911000    0.62010034    -0.09630000
opls_145-170    C    0.59604013    0.66049000    0.63414991    -0.11490000
opls_700-171    C    0.49475999    0.72538000    0.64619007    0.04040000
opls_142-172    C    0.82984026    0.40515000    0.58969007    0.08980000
opls_700-173    C    0.85620009    0.37344000    0.59697998    0.07740000
opls_145-174    C    0.89986990    0.36736000    0.55614035    -0.13200000
opls_145-175    C    0.92867007    0.33862000    0.57004037    -0.06820000
opls_700-176    C    0.91364024    0.31675000    0.62513020    0.11690000
opls_145-177    C    0.86926026    0.32243000    0.66471026    -0.09630000
opls_145-178    C    0.84070025    0.35097000    0.65086027    -0.12940000
opls_700-179    C    0.94205007    0.28616000    0.63747998    0.04040000
opls_136-180    C    0.80823024    0.47123000    0.65260007    0.07280000
opls_136-181    C    0.72688997    0.44022000    0.69601993    0.07100000
opls_139-182    C    0.76746996    0.44386000    0.63598029    0.16710000
opls_136-183    C    0.69206021    0.56252000    0.72175000    0.07280000
opls_136-184    C    0.62761992    0.53997000    0.63191039    0.07280000
opls_136-185    C    0.70896004    0.57096000    0.58848000    0.07100000
opls_139-186    C    0.66840012    0.56732000    0.64852016    0.16700000
opls_136-187    C    0.74380003    0.44865000    0.56274993    0.07280000
opls_142-188    C    0.32759012    0.90514000    0.69479038    0.09220000
opls_700-189    C    0.35423019    0.87340000    0.68722032    0.07740000
opls_145-190    C    0.39614004    0.86726000    0.72787039    -0.12810000
opls_145-191    C    0.42555997    0.83855000    0.71355016    -0.06860000
opls_700-192    C    0.41291024    0.81677000    0.65826024    0.11620000
opls_145-193    C    0.37024024    0.82252000    0.61888027    -0.09610000
opls_145-194    C    0.34107015    0.85103000    0.63313994    -0.10240000
opls_700-195    C    0.44185029    0.78620000    0.64553027    0.04050000
opls_142-196    C    0.10823994    0.10589000    0.58890020    0.09220000
opls_700-197    C    0.08180013    0.13772000    0.59609007    0.07740000
opls_145-198    C    0.03986998    0.14386000    0.55550003    -0.12250000
opls_145-199    C    0.01071008    0.17274000    0.56946008    -0.06860000
opls_700-200    C    0.02369021    0.19468000    0.62431032    0.11690000
opls_145-201    C    0.06639005    0.18893000    0.66361025    -0.09630000
opls_145-202    C    0.09528004    0.16027000    0.64971023    -0.10240000
opls_700-203    C    0.99489001    0.22531000    0.63697025    0.04060000
opls_136-204    C    0.12694005    0.03973000    0.65168015    0.07280000
opls_136-205    C    0.20598010    0.07087000    0.69592041    0.07100000
opls_139-206    C    0.16840021    0.06717000    0.63553007    0.16700000
opls_136-207    C    0.24013001    0.94863000    0.72141036    0.07280000
opls_136-208    C    0.30883997    0.97134000    0.63223002    0.07280000
opls_136-209    C    0.22979028    0.94021000    0.58798028    0.07100000
opls_139-210    C    0.26738010    0.94390000    0.64835008    0.16700000
opls_136-211    C    0.19566992    0.06244000    0.56249032    0.07280000
opls_145-212    C    0.41565017    0.75576000    0.64266991    -0.12320000
opls_145-213    C    0.52110002    0.75583000    0.64395001    -0.12310000
opls_145-214    C    0.02118020    0.25574000    0.63918029    -0.12800000
opls_145-215    C    0.91567996    0.25573000    0.64033033    -0.12310000
F2_Mo4f2-216    Mo    0.15403986    0.28705000    0.04951023    1.40100000
F2_Mo4f2-217    Mo    0.13431999    0.29634000    0.20307025    1.40090000
F2_Mo4f2-218    Mo    0.24728027    0.25180000    0.99789001    1.40100000
F2_Mo4f2-219    Mo    0.30156021    0.23503000    0.25305019    1.40090000
F2_Mo4f2-220    Mo    0.32126001    0.22574000    0.09949017    1.40100000
F2_Mo4f2-221    Mo    0.20830996    0.27028000    0.30466988    1.40090000
F2_Mo4f2-222    Mo    0.80627997    0.73484000    0.05040014    1.40100000
F2_Mo4f2-223    Mo    0.81836996    0.72571000    0.20411024    1.40100000
F2_Mo4f2-224    Mo    0.71574035    0.77021000    0.99793003    1.40090000
F2_Mo4f2-225    Mo    0.64897993    0.78741000    0.25252993    1.40090000
F2_Mo4f2-226    Mo    0.63687994    0.79654000    0.09880983    1.40090000
F2_Mo4f2-227    Mo    0.73952015    0.75204000    0.30499004    1.40090000
F2_Mo4f2-228    Mo    0.80208012    0.28670000    0.25413020    1.40090000
F2_Mo4f2-229    Mo    0.82230003    0.29644000    0.10081977    1.40100000
F2_Mo4f2-230    Mo    0.70859988    0.25139000    0.30457984    1.40100000
F2_Mo4f2-231    Mo    0.65514008    0.23545000    0.04877987    1.40090000
F2_Mo4f2-232    Mo    0.63491017    0.22571000    0.20208029    1.40090000
F2_Mo4f2-233    Mo    0.74861032    0.27077000    0.99832022    1.40090000
F2_Mo4f2-234    Mo    0.15016988    0.73526000    0.25274004    1.40100000
F2_Mo4f2-235    Mo    0.13754991    0.72554000    0.09925005    1.40090000
F2_Mo4f2-236    Mo    0.24099012    0.77075000    0.30414015    1.40100000
F2_Mo4f2-237    Mo    0.30696002    0.78689000    0.04891994    1.40100000
F2_Mo4f2-238    Mo    0.31959022    0.79661000    0.20240993    1.40090000
F2_Mo4f2-239    Mo    0.21614999    0.75140000    0.99752035    1.40090000
F2_Mo4f2-240    Mo    0.14523999    0.53151000    0.53992023    1.40090000
F2_Mo4f2-241    Mo    0.12553011    0.54080000    0.69349026    1.40090000
F2_Mo4f2-242    Mo    0.23848025    0.49626000    0.48829001    1.40090000
F2_Mo4f2-243    Mo    0.29276019    0.47948000    0.74345019    1.40090000
F2_Mo4f2-244    Mo    0.31247006    0.47020000    0.58988016    1.40100000
F2_Mo4f2-245    Mo    0.19951030    0.51473000    0.79507041    1.40090000
F2_Mo4f2-246    Mo    0.79746011    0.97933000    0.54099024    1.40090000
F2_Mo4f2-247    Mo    0.80956011    0.97020000    0.69471034    1.40090000
F2_Mo4f2-248    Mo    0.70692997    0.01469000    0.48852012    1.40090000
F2_Mo4f2-249    Mo    0.64017030    0.03191000    0.74312002    1.40090000
F2_Mo4f2-250    Mo    0.62808016    0.04103000    0.58939992    1.40090000
F2_Mo4f2-251    Mo    0.73070007    0.99653000    0.79559014    1.40110000
F2_Mo4f2-252    Mo    0.79140006    0.53121000    0.74492039    1.40090000
F2_Mo4f2-253    Mo    0.81163020    0.54096000    0.59160996    1.40090000
F2_Mo4f2-254    Mo    0.69791997    0.49590000    0.79538003    1.40100000
F2_Mo4f2-255    Mo    0.64445002    0.47997000    0.53956006    1.40090000
F2_Mo4f2-256    Mo    0.62423012    0.47023000    0.69286995    1.40090000
F2_Mo4f2-257    Mo    0.73793027    0.51528000    0.48910989    1.40090000
F2_Mo4f2-258    Mo    0.13950008    0.97973000    0.74388040    1.40090000
F2_Mo4f2-259    Mo    0.12687012    0.97001000    0.59037988    1.40100000
F2_Mo4f2-260    Mo    0.23031018    0.01522000    0.79525998    1.40100000
F2_Mo4f2-261    Mo    0.29628992    0.03135000    0.54004029    1.40090000
F2_Mo4f2-262    Mo    0.30892012    0.04108000    0.69353028    1.40120000
F2_Mo4f2-263    Mo    0.20547021    0.99586000    0.48865019    1.40090000
opls_272-264    O    0.12063002    0.33231000    0.26015001    -0.46910000
MOF2_O_3-265    O    0.15815007    0.25934000    0.13742995    -0.43770000
opls_272-266    O    0.08719003    0.28135000    0.03706988    -0.46910000
opls_180-267    O    0.13860995    0.32585000    0.11645012    -0.47440000
opls_272-268    O    0.15734010    0.31503000    0.97403034    -0.46910000
opls_272-269    O    0.06748017    0.29056000    0.19078998    -0.46900000
MOF2_O_3-270    O    0.22763989    0.28736000    0.06902987    -0.43770000
opls_180-271    O    0.17240020    0.24724000    0.98724002    -0.47440000
opls_272-272    O    0.25041015    0.27981000    0.92254018    -0.46910000
opls_272-273    O    0.26098018    0.21582000    0.94089029    -0.46910000
MOF2_O_3-274    O    0.24633998    0.22588000    0.08858005    -0.43770000
opls_180-275    O    0.32158002    0.25676000    0.01521014    -0.47450000
opls_272-276    O    0.33495014    0.18976000    0.04241989    -0.46910000
MOF2_O_3-277    O    0.29744017    0.26274000    0.16512994    -0.43770000
opls_272-278    O    0.36839991    0.24073000    0.26547001    -0.46910000
opls_180-279    O    0.31697005    0.19623000    0.18611030    -0.47450000
opls_272-280    O    0.29825012    0.20706000    0.32853008    -0.46910000
opls_272-281    O    0.38809984    0.23151000    0.11176992    -0.46910000
MOF2_O_3-282    O    0.22796020    0.23473000    0.23353003    -0.43770000
opls_180-283    O    0.28319004    0.27484000    0.31531988    -0.47450000
opls_272-284    O    0.20518007    0.24227000    0.38002024    -0.46910000
opls_272-285    O    0.19459012    0.30626000    0.36168013    -0.46910000
MOF2_O_3-286    O    0.20924988    0.29620000    0.21397985    -0.43770000
opls_180-287    O    0.13401020    0.26531000    0.28735028    -0.47450000
opls_272-288    O    0.82909986    0.68978000    0.26135008    -0.46910000
MOF2_O_3-289    O    0.79794986    0.76267000    0.13820981    -0.43770000
opls_272-290    O    0.87374997    0.74038000    0.03854008    -0.46910000
opls_180-291    O    0.81822000    0.69609000    0.11753013    -0.47450000
opls_272-292    O    0.80655029    0.70676000    0.97497027    -0.46910000
opls_272-293    O    0.88583013    0.73133000    0.19240025    -0.46910000
MOF2_O_3-294    O    0.73173006    0.73471000    0.06927999    -0.43770000
opls_180-295    O    0.79116004    0.77460000    0.98791035    -0.47440000
opls_272-296    O    0.71621024    0.74211000    0.92262022    -0.46910000
opls_272-297    O    0.70501024    0.80615000    0.94075022    -0.46910000
MOF2_O_3-298    O    0.71233005    0.79624000    0.08855003    -0.43760000
opls_180-299    O    0.64059018    0.76541000    0.01460984    -0.47450000
opls_272-300    O    0.62615989    0.83247000    0.04157000    -0.46910000
MOF2_O_3-301    O    0.65730019    0.75958000    0.16472027    -0.43770000
opls_272-302    O    0.58151008    0.78187000    0.26440000    -0.46910000
opls_180-303    O    0.63703005    0.82616000    0.18539995    -0.47450000
opls_272-304    O    0.64870997    0.81549000    0.32796033    -0.46910000
opls_272-305    O    0.56942999    0.79092000    0.11051983    -0.46900000
MOF2_O_3-306    O    0.72354006    0.78754000    0.23365009    -0.43770000
opls_180-307    O    0.66411007    0.74765000    0.31502026    -0.47440000
opls_272-308    O    0.73904989    0.78014000    0.38029985    -0.46910000
opls_272-309    O    0.75025011    0.71610000    0.36215985    -0.46910000
MOF2_O_3-310    O    0.74293007    0.72602000    0.21437004    -0.43770000
opls_180-311    O    0.81467009    0.75683000    0.28832023    -0.47450000
opls_272-312    O    0.83626993    0.33257000    0.04440982    -0.46910000
MOF2_O_3-313    O    0.79819008    0.25927000    0.16572023    -0.43770000
opls_272-314    O    0.86886000    0.28089000    0.26690019    -0.46910000
opls_180-315    O    0.81780020    0.32569000    0.18791014    -0.47430000
opls_272-316    O    0.79858015    0.31445000    0.33005031    -0.46900000
opls_272-317    O    0.88908003    0.29056000    0.11345022    -0.46910000
MOF2_O_3-318    O    0.72855990    0.28714000    0.23412980    -0.43770000
opls_180-319    O    0.78342008    0.24672000    0.31565004    -0.47450000
opls_272-320    O    0.70528012    0.27918000    0.38036989    -0.46910000
opls_272-321    O    0.69461988    0.21526000    0.36095030    -0.46910000
MOF2_O_3-322    O    0.70978012    0.22574000    0.21348013    -0.43770000
opls_180-323    O    0.63438015    0.25648000    0.28687004    -0.47450000
opls_272-324    O    0.62093989    0.18958000    0.25849024    -0.46910000
MOF2_O_3-325    O    0.65902997    0.26289000    0.13717983    -0.43770000
opls_272-326    O    0.58835013    0.24126000    0.03601989    -0.46910000
opls_180-327    O    0.63942000    0.19646000    0.11499993    -0.47450000
opls_272-328    O    0.65863019    0.20770000    0.97286029    -0.46910000
opls_272-329    O    0.56812994    0.23159000    0.18945985    -0.46910000
MOF2_O_3-330    O    0.72864992    0.23502000    0.06877027    -0.43760000
opls_180-331    O    0.67379027    0.27543000    0.98726003    -0.47450000
opls_272-332    O    0.75194008    0.24297000    0.92254018    -0.46910000
opls_272-333    O    0.76259031    0.30690000    0.94195029    -0.46910000
MOF2_O_3-334    O    0.74743008    0.29642000    0.08941993    -0.43760000
opls_180-335    O    0.82282982    0.26568000    0.01604002    -0.47450000
opls_272-336    O    0.12651986    0.68940000    0.04256996    -0.46890000
MOF2_O_3-337    O    0.15828009    0.76274000    0.16452017    -0.43770000
opls_272-338    O    0.08274991    0.74091000    0.26495028    -0.46910000
opls_180-339    O    0.13790000    0.69626000    0.18620982    -0.47450000
opls_272-340    O    0.15007020    0.70748000    0.32853008    -0.46910000
opls_272-341    O    0.07013993    0.73127000    0.11132022    -0.46910000
MOF2_O_3-342    O    0.22466018    0.73500000    0.23337995    -0.43770000
opls_180-343    O    0.16560995    0.77526000    0.31459004    -0.47450000
opls_272-344    O    0.24071005    0.74294000    0.37980013    -0.46910000
opls_272-345    O    0.25203001    0.80690000    0.36077021    -0.46910000
MOF2_O_3-346    O    0.24416993    0.79642000    0.21315997    -0.43760000
opls_180-347    O    0.31608009    0.76582000    0.28704013    -0.47450000
opls_272-348    O    0.33062989    0.83274000    0.25910002    -0.46910000
MOF2_O_3-349    O    0.29885019    0.75941000    0.13713981    -0.43760000
opls_272-350    O    0.37439005    0.78124000    0.03670022    -0.46910000
opls_180-351    O    0.31924013    0.82588000    0.11545015    -0.47450000
opls_272-352    O    0.30707029    0.81467000    0.97313042    -0.46900000
opls_272-353    O    0.38700019    0.79087000    0.19034028    -0.46900000
MOF2_O_3-354    O    0.23247009    0.78716000    0.06828002    -0.43770000
opls_180-355    O    0.29152032    0.74690000    0.98707046    -0.47450000
opls_272-356    O    0.21643007    0.77921000    0.92186037    -0.46910000
opls_272-357    O    0.20512010    0.71525000    0.94090030    -0.46910000
MOF2_O_3-358    O    0.21298005    0.72572000    0.08850001    -0.43760000
opls_180-359    O    0.14106003    0.75633000    0.01461985    -0.47440000
opls_272-360    O    0.11185022    0.57678000    0.75056001    -0.46910000
MOF2_O_3-361    O    0.14935019    0.50380000    0.62783995    -0.43770000
opls_272-362    O    0.07839008    0.52582000    0.52749989    -0.46910000
opls_180-363    O    0.12982007    0.57031000    0.60687013    -0.47450000
opls_272-364    O    0.14854000    0.55949000    0.46445034    -0.46900000
opls_272-365    O    0.05869015    0.53503000    0.68119998    -0.46910000
MOF2_O_3-366    O    0.21883015    0.53181000    0.55944040    -0.43770000
opls_180-367    O    0.16359994    0.49170000    0.47765002    -0.47450000
opls_272-368    O    0.24161013    0.52428000    0.41294018    -0.46910000
opls_272-369    O    0.25219007    0.46029000    0.43127028    -0.46910000
MOF2_O_3-370    O    0.23754018    0.47034000    0.57897004    -0.43770000
opls_180-371    O    0.31278000    0.50123000    0.50561014    -0.47440000
opls_272-372    O    0.32616004    0.43423000    0.53279988    -0.46910000
MOF2_O_3-373    O    0.28864014    0.50720000    0.65552994    -0.43770000
opls_272-374    O    0.35960003    0.48518000    0.75588001    -0.46910000
opls_180-375    O    0.30817995    0.44069000    0.67649029    -0.47450000
opls_272-376    O    0.28945032    0.45150000    0.81892008    -0.46910000
opls_272-377    O    0.37931004    0.47598000    0.60216991    -0.46910000
MOF2_O_3-378    O    0.21916017    0.47918000    0.72393002    -0.43770000
opls_180-379    O    0.27439000    0.51929000    0.80572040    -0.47440000
opls_272-380    O    0.19638005    0.48672000    0.87042024    -0.46910000
opls_272-381    O    0.18581017    0.55071000    0.85208013    -0.46910000
MOF2_O_3-382    O    0.20046022    0.54065000    0.70439038    -0.43770000
opls_180-383    O    0.12520995    0.50978000    0.77776028    -0.47450000
opls_272-384    O    0.82029016    0.93428000    0.75196018    -0.46910000
MOF2_O_3-385    O    0.78914024    0.00717000    0.62879990    -0.43770000
opls_272-386    O    0.86494019    0.98487000    0.52912017    -0.46910000
opls_180-387    O    0.80942000    0.94058000    0.60813022    -0.47450000
opls_272-388    O    0.79773991    0.95125000    0.46556037    -0.46910000
opls_272-389    O    0.87702013    0.97582000    0.68299034    -0.46910000
MOF2_O_3-390    O    0.72291021    0.97919000    0.55987008    -0.43770000
opls_180-391    O    0.78234005    0.01909000    0.47848991    -0.47450000
opls_272-392    O    0.70739000    0.98659000    0.41321031    -0.46910000
opls_272-393    O    0.69620000    0.05063000    0.43135032    -0.46910000
MOF2_O_3-394    O    0.70352004    0.04072000    0.57914012    -0.43770000
opls_180-395    O    0.63178018    0.00990000    0.50519994    -0.47450000
opls_272-396    O    0.61735996    0.07696000    0.53215008    -0.46910000
MOF2_O_3-397    O    0.64849018    0.00407000    0.65531036    -0.43770000
opls_272-398    O    0.57270015    0.02637000    0.75497009    -0.46910000
opls_180-399    O    0.62823012    0.07065000    0.67598004    -0.47450000
opls_272-400    O    0.63990019    0.05998000    0.81854042    -0.46910000
opls_272-401    O    0.56061998    0.03542000    0.60110992    -0.46910000
MOF2_O_3-402    O    0.71472021    0.03203000    0.72424018    -0.43770000
opls_180-403    O    0.65529022    0.99214000    0.80561035    -0.47450000
opls_272-404    O    0.73024025    0.02464000    0.87089047    -0.46900000
opls_272-405    O    0.74144003    0.96060000    0.85276995    -0.46910000
MOF2_O_3-406    O    0.73412022    0.97051000    0.70497014    -0.43760000
opls_180-407    O    0.80586009    0.00133000    0.77891033    -0.47440000
opls_272-408    O    0.82559025    0.57709000    0.53520001    -0.46910000
MOF2_O_3-409    O    0.78750019    0.50378000    0.65650990    -0.43770000
opls_272-410    O    0.85818001    0.52541000    0.75767037    -0.46910000
opls_180-411    O    0.80711029    0.57021000    0.67870033    -0.47450000
opls_272-412    O    0.78789995    0.55896000    0.82082997    -0.46900000
opls_272-413    O    0.87839997    0.53508000    0.60424041    -0.46910000
MOF2_O_3-414    O    0.71787999    0.53164000    0.72492999    -0.43770000
opls_180-415    O    0.77274002    0.49124000    0.80644023    -0.47440000
opls_272-416    O    0.69460006    0.52369000    0.87116008    -0.46910000
opls_272-417    O    0.68394021    0.45977000    0.85173996    -0.46910000
MOF2_O_3-418    O    0.69910006    0.47025000    0.70427032    -0.43770000
opls_180-419    O    0.62370994    0.50099000    0.77766023    -0.47450000
opls_272-420    O    0.61026021    0.43410000    0.74928043    -0.46910000
MOF2_O_3-421    O    0.64834006    0.50741000    0.62797002    -0.43770000
opls_272-422    O    0.57767014    0.48578000    0.52679007    -0.46910000
opls_180-423    O    0.62873009    0.44098000    0.60579012    -0.47450000
opls_272-424    O    0.64794014    0.45223000    0.46363994    -0.46910000
opls_272-425    O    0.55745026    0.47612000    0.68025004    -0.46910000
MOF2_O_3-426    O    0.71797025    0.47953000    0.55955993    -0.43770000
opls_180-427    O    0.66311021    0.51995000    0.47805022    -0.47450000
opls_272-428    O    0.74125018    0.48750000    0.41332984    -0.46910000
opls_272-429    O    0.75191003    0.55142000    0.43274996    -0.46900000
MOF2_O_3-430    O    0.73675018    0.54093000    0.58022013    -0.43770000
opls_180-431    O    0.81215014    0.51019000    0.50683021    -0.47450000
opls_272-432    O    0.11583021    0.93387000    0.53370032    -0.46910000
MOF2_O_3-433    O    0.14761015    0.00721000    0.65565000    -0.43770000
opls_272-434    O    0.07208028    0.98538000    0.75610012    -0.46910000
opls_180-435    O    0.12721998    0.94073000    0.67735019    -0.47450000
opls_272-436    O    0.13940003    0.95195000    0.81967045    -0.46910000
opls_272-437    O    0.05945992    0.97575000    0.60246006    -0.46910000
MOF2_O_3-438    O    0.21399024    0.97945000    0.72451031    -0.43770000
opls_180-439    O    0.15494000    0.01972000    0.80572040    -0.47450000
opls_272-440    O    0.23004011    0.98741000    0.87092996    -0.46910000
opls_272-441    O    0.24135030    0.05137000    0.85188003    -0.46910000
MOF2_O_3-442    O    0.23348998    0.04089000    0.70428032    -0.43770000
opls_180-443    O    0.30541016    0.01029000    0.77816996    -0.47450000
opls_272-444    O    0.31995017    0.07722000    0.75021037    -0.46910000
MOF2_O_3-445    O    0.28818024    0.00387000    0.62827017    -0.43760000
opls_272-446    O    0.36372011    0.02570000    0.52783006    -0.46910000
opls_180-447    O    0.30856004    0.07035000    0.60655998    -0.47450000
opls_272-448    O    0.29638998    0.05912000    0.46425025    -0.46910000
opls_272-449    O    0.37632025    0.03534000    0.68146011    -0.46910000
MOF2_O_3-450    O    0.22180015    0.03162000    0.55941038    -0.43770000
opls_180-451    O    0.28085000    0.99135000    0.47820029    -0.47450000
opls_272-452    O    0.20574990    0.02367000    0.41299020    -0.46910000
opls_272-453    O    0.19443009    0.95971000    0.43203013    -0.46910000
MOF2_O_3-454    O    0.20229002    0.97019000    0.57963036    -0.43770000
opls_180-455    O    0.13038024    0.00080000    0.50575021    -0.47440000
F2_Co6+2-456    Co    0.22779000    0.26104000    0.15127995    1.53000000
F2_Co6+2-457    Co    0.72762987    0.76113000    0.15146004    1.53000000
F2_Co6+2-458    Co    0.72861002    0.26108000    0.15145003    1.53000000
F2_Co6+2-459    Co    0.22856987    0.76108000    0.15083025    1.53000000
F2_Co6+2-460    Co    0.21898998    0.50549000    0.64167995    1.53010000
F2_Co6+2-461    Co    0.71882025    0.00561000    0.64205013    1.53000000
F2_Co6+2-462    Co    0.71792011    0.50559000    0.64224022    1.53020000
F2_Co6+2-463    Co    0.21789008    0.00554000    0.64196008    1.53000000
opls_144-464    H    0.34993008    0.34260000    0.05625988    0.03150000
opls_146-465    H    0.42168012    0.38122000    0.02345000    0.05270000
opls_146-466    H    0.47455012    0.43404000    0.04965978    0.05340000
opls_146-467    H    0.36652005    0.46278000    0.22035984    0.05270000
opls_146-468    H    0.31394004    0.41015000    0.19409003    0.05340000
opls_144-469    H    0.10573010    0.17955000    0.24644008    0.03150000
opls_146-470    H    0.03414003    0.14082000    0.27963015    0.05270000
opls_146-471    H    0.98159994    0.08778000    0.25394010    0.05340000
opls_146-472    H    0.08990983    0.05889000    0.08368026    0.05270000
opls_146-473    H    0.14215009    0.11175000    0.10942981    0.05340000
opls_140-474    H    0.11959983    0.22048000    0.08858005    0.04860000
opls_140-475    H    0.10679003    0.22592000    0.18464010    0.04860000
opls_140-476    H    0.24521002    0.17385000    0.10889007    0.04860000
opls_140-477    H    0.19855992    0.18998000    0.04553985    0.04860000
opls_140-478    H    0.22615987    0.34022000    0.06332021    0.04860000
opls_140-479    H    0.28508987    0.31877000    0.03019017    0.04860000
opls_140-480    H    0.34904987    0.29592000    0.11826997    0.04860000
opls_140-481    H    0.33568019    0.30185000    0.21407990    0.04860000
opls_140-482    H    0.25667005    0.33211000    0.25729018    0.04860000
opls_140-483    H    0.21054016    0.34826000    0.19323013    0.04860000
opls_140-484    H    0.22946013    0.18188000    0.23923021    0.04860000
opls_140-485    H    0.17085989    0.20357000    0.27286997    0.04860000
opls_144-486    H    0.60973000    0.67954000    0.05566011    0.03150000
opls_146-487    H    0.53957010    0.64061000    0.02272016    0.05340000
opls_146-488    H    0.48601009    0.58757000    0.04884991    0.05270000
opls_146-489    H    0.58672993    0.55927000    0.21936988    0.05340000
opls_146-490    H    0.63999008    0.61211000    0.19320012    0.05270000
opls_144-491    H    0.84543990    0.84272000    0.24733000    0.03150000
opls_146-492    H    0.91575018    0.88146000    0.28021992    0.05340000
opls_146-493    H    0.96980994    0.93423000    0.25385006    0.05270000
opls_146-494    H    0.86967988    0.96260000    0.08270978    0.05340000
opls_146-495    H    0.81591012    0.91001000    0.10912019    0.05270000
opls_140-496    H    0.83905988    0.80140000    0.08961003    0.04860000
opls_140-497    H    0.84712001    0.79606000    0.18576013    0.04860000
opls_140-498    H    0.71266015    0.84829000    0.10875000    0.04860000
opls_140-499    H    0.76233987    0.83199000    0.04584000    0.04870000
opls_140-500    H    0.73324014    0.68185000    0.06363984    0.04860000
opls_140-501    H    0.67604985    0.70339000    0.03000007    0.04860000
opls_140-502    H    0.60787007    0.72643000    0.11746009    0.04860000
opls_140-503    H    0.61648995    0.72058000    0.21338008    0.04860000
opls_140-504    H    0.69320990    0.69026000    0.25732019    0.04860000
opls_140-505    H    0.74243000    0.67393000    0.19372985    0.04860000
opls_140-506    H    0.72203006    0.84041000    0.23927023    0.04860000
opls_140-507    H    0.77886995    0.81863000    0.27338023    0.04860000
opls_144-508    H    0.60655006    0.34232000    0.24735001    0.03150000
opls_146-509    H    0.53500016    0.38080000    0.28130993    0.05340000
opls_146-510    H    0.48209010    0.43371000    0.25647030    0.05340000
opls_146-511    H    0.58977019    0.46317000    0.08591979    0.05340000
opls_146-512    H    0.64239018    0.41042000    0.11083998    0.05340000
opls_144-513    H    0.85078008    0.17985000    0.05569012    0.03150000
opls_146-514    H    0.92227007    0.14121000    0.02185026    0.05340000
opls_146-515    H    0.97478982    0.08810000    0.04662986    0.05340000
opls_146-516    H    0.86651995    0.05872000    0.21651005    0.05340000
opls_146-517    H    0.81430990    0.11166000    0.19166989    0.05340000
opls_140-518    H    0.83647991    0.22023000    0.21420996    0.04860000
opls_140-519    H    0.84963002    0.22596000    0.11830999    0.04860000
opls_140-520    H    0.71087013    0.17376000    0.19234022    0.04860000
opls_140-521    H    0.75734015    0.18967000    0.25625019    0.04860000
opls_140-522    H    0.73016009    0.33997000    0.24068988    0.04860000
opls_140-523    H    0.67108992    0.31848000    0.27315011    0.04860000
opls_140-524    H    0.60733006    0.29596000    0.18425991    0.04860000
opls_140-525    H    0.62103983    0.30219000    0.08862007    0.04860000
opls_140-526    H    0.70019010    0.33250000    0.04639975    0.04860000
opls_140-527    H    0.74615989    0.34843000    0.11099006    0.04860000
opls_140-528    H    0.72705011    0.18218000    0.06221019    0.04860000
opls_140-529    H    0.78580006    0.20393000    0.02927024    0.04860000
opls_144-530    H    0.34638997    0.67997000    0.24725996    0.03150000
opls_146-531    H    0.41633008    0.64130000    0.28130993    0.05270000
opls_146-532    H    0.46991005    0.58813000    0.25665987    0.05340000
opls_146-533    H    0.36962015    0.55878000    0.08623994    0.05270000
opls_146-534    H    0.31634019    0.61177000    0.11094003    0.05340000
opls_144-535    H    0.11072016    0.84230000    0.05447005    0.03150000
opls_146-536    H    0.04055004    0.88090000    0.02090980    0.05270000
opls_146-537    H    0.98656001    0.93380000    0.04639027    0.05340000
opls_146-538    H    0.08660990    0.96286000    0.21728990    0.05270000
opls_146-539    H    0.14029991    0.91015000    0.19175993    0.05340000
opls_140-540    H    0.11744005    0.80169000    0.21283981    0.04860000
opls_140-541    H    0.10903985    0.79597000    0.11681978    0.04860000
opls_140-542    H    0.24391019    0.84840000    0.19226018    0.04860000
opls_140-543    H    0.19436986    0.83239000    0.25568991    0.04860000
opls_140-544    H    0.22299997    0.68216000    0.23972993    0.04860000
opls_140-545    H    0.28036018    0.70378000    0.27273991    0.04860000
opls_140-546    H    0.34835994    0.72642000    0.18453005    0.04860000
opls_140-547    H    0.33940008    0.72019000    0.08877014    0.04860000
opls_140-548    H    0.26248002    0.68975000    0.04573995    0.04860000
opls_140-549    H    0.21340998    0.67371000    0.10983001    0.04860000
opls_140-550    H    0.23410985    0.84001000    0.06193005    0.04860000
opls_140-551    H    0.17710020    0.81814000    0.02845984    0.04860000
opls_146-552    H    0.38220010    0.51068000    0.15395021    0.05340000
opls_146-553    H    0.57407017    0.51115000    0.15266010    0.05340000
opls_146-554    H    0.07409007    0.01102000    0.15064016    0.05340000
opls_146-555    H    0.88228997    0.01102000    0.14906991    0.05340000
opls_144-556    H    0.34115004    0.58698000    0.54663039    0.03150000
opls_146-557    H    0.41281006    0.62571000    0.51362989    0.05340000
opls_146-558    H    0.46526000    0.67879000    0.53936996    0.05340000
opls_146-559    H    0.35662005    0.70772000    0.70920012    0.05270000
opls_146-560    H    0.30449019    0.65483000    0.68341002    0.05350000
opls_144-561    H    0.09693999    0.42392000    0.73677005    0.03150000
opls_146-562    H    0.02526012    0.38529000    0.76976002    0.05270000
opls_146-563    H    0.97229027    0.33252000    0.74356024    0.05340000
opls_146-564    H    0.08000999    0.30385000    0.57242997    0.05270000
opls_146-565    H    0.13268999    0.35644000    0.59870031    0.05340000
opls_140-566    H    0.11080025    0.46495000    0.57896003    0.04860000
opls_140-567    H    0.09799992    0.47037000    0.67502009    0.04860000
opls_140-568    H    0.23643014    0.41831000    0.59927006    0.04860000
opls_140-569    H    0.18978995    0.43444000    0.53590036    0.04860000
opls_140-570    H    0.21735014    0.58466000    0.55373021    0.04860000
opls_140-571    H    0.27627022    0.56321000    0.52057016    0.04860000
opls_140-572    H    0.34025029    0.54037000    0.60864995    0.04860000
opls_140-573    H    0.32689008    0.54631000    0.70446041    0.04860000
opls_140-574    H    0.24791002    0.57656000    0.74768017    0.04860000
opls_140-575    H    0.20176998    0.59272000    0.68365014    0.04860000
opls_140-576    H    0.22063003    0.42631000    0.72962020    0.04860000
opls_140-577    H    0.16203024    0.44800000    0.76323996    0.04860000
opls_144-578    H    0.60097992    0.92403000    0.54623019    0.03150000
opls_146-579    H    0.53079992    0.88525000    0.51314017    0.05340000
opls_146-580    H    0.47680015    0.83243000    0.53931994    0.05270000
opls_146-581    H    0.57668001    0.80415000    0.71082039    0.05340000
opls_146-582    H    0.63039018    0.85678000    0.68460008    0.05270000
opls_144-583    H    0.83669997    0.08721000    0.73787006    0.03150000
opls_146-584    H    0.90700006    0.12611000    0.77059043    0.05340000
opls_146-585    H    0.96062021    0.17910000    0.74423005    0.05270000
opls_146-586    H    0.85963011    0.20746000    0.57407025    0.05340000
opls_146-587    H    0.80631021    0.15467000    0.60047013    0.05270000
opls_140-588    H    0.83025018    0.04590000    0.58022013    0.04860000
opls_140-589    H    0.83831009    0.04055000    0.67638023    0.04860000
opls_140-590    H    0.70385999    0.09278000    0.59934010    0.04860000
opls_140-591    H    0.75355010    0.07647000    0.53644010    0.04860000
opls_140-592    H    0.72441014    0.92632000    0.55425995    0.04860000
opls_140-593    H    0.66722022    0.94787000    0.52062018    0.04860000
opls_140-594    H    0.59906014    0.97092000    0.60808020    0.04860000
opls_140-595    H    0.60769025    0.96509000    0.70400019    0.04860000
opls_140-596    H    0.68441020    0.93474000    0.74794030    0.04860000
opls_140-597    H    0.73363015    0.91841000    0.68433995    0.04860000
opls_140-598    H    0.71320998    0.08489000    0.72987033    0.04860000
opls_140-599    H    0.77005025    0.06311000    0.76398032    0.04860000
opls_144-600    H    0.59576999    0.58685000    0.73804015    0.03150000
opls_146-601    H    0.52415026    0.62545000    0.77162041    0.05350000
opls_146-602    H    0.47165004    0.67855000    0.74663018    0.05340000
opls_146-603    H    0.58033005    0.70804000    0.57734029    0.05340000
opls_146-604    H    0.63253029    0.65512000    0.60238002    0.05340000
opls_144-605    H    0.83999008    0.42438000    0.54635025    0.03150000
opls_146-606    H    0.91141017    0.38588000    0.51210018    0.05340000
opls_146-607    H    0.96434005    0.33295000    0.53670022    0.05340000
opls_146-608    H    0.85709004    0.30358000    0.70782997    0.05340000
opls_146-609    H    0.80445022    0.35635000    0.68315042    0.05340000
opls_140-610    H    0.82579015    0.46475000    0.70501016    0.04860000
opls_140-611    H    0.83895012    0.47048000    0.60911018    0.04860000
opls_140-612    H    0.70019007    0.41827000    0.68313041    0.04860000
opls_140-613    H    0.74666009    0.43418000    0.74704038    0.04860000
opls_140-614    H    0.71949018    0.58448000    0.73150008    0.04860000
opls_140-615    H    0.66041017    0.56298000    0.76396031    0.04860000
opls_140-616    H    0.59666016    0.54048000    0.67507011    0.04860000
opls_140-617    H    0.61036023    0.54671000    0.57944027    0.04860000
opls_140-618    H    0.68951012    0.57701000    0.53721995    0.04860000
opls_140-619    H    0.73547998    0.59294000    0.60179025    0.04860000
opls_140-620    H    0.71637020    0.42670000    0.55301038    0.04860000
opls_140-621    H    0.77511016    0.44844000    0.52005990    0.04860000
opls_144-622    H    0.33567995    0.92430000    0.73837031    0.03150000
opls_146-623    H    0.40575995    0.88570000    0.77208011    0.05270000
opls_146-624    H    0.45979028    0.83281000    0.74671022    0.05340000
opls_146-625    H    0.35993992    0.80374000    0.57557994    0.05270000
opls_146-626    H    0.30621996    0.85645000    0.60101039    0.05340000
opls_144-627    H    0.10003013    0.08663000    0.54555038    0.03150000
opls_146-628    H    0.02999997    0.12529000    0.51162995    0.05270000
opls_146-629    H    0.97645024    0.17847000    0.53635005    0.05340000
opls_146-630    H    0.07694025    0.20784000    0.70653038    0.05270000
opls_146-631    H    0.13018013    0.15484000    0.68176026    0.05340000
opls_140-632    H    0.10677017    0.04616000    0.70395016    0.04860000
opls_140-633    H    0.09836028    0.04043000    0.60794013    0.04860000
opls_140-634    H    0.23322026    0.09287000    0.68337000    0.04860000
opls_140-635    H    0.18367998    0.07686000    0.74678025    0.04860000
opls_140-636    H    0.21234025    0.92661000    0.73086029    0.04860000
opls_140-637    H    0.26972023    0.94823000    0.76385026    0.04860000
opls_140-638    H    0.33767999    0.97088000    0.67565040    0.04860000
opls_140-639    H    0.32871999    0.96466000    0.57987996    0.04860000
opls_140-640    H    0.25177014    0.93421000    0.53686030    0.04860000
opls_140-641    H    0.20271026    0.91817000    0.60097037    0.04860000
opls_140-642    H    0.22346006    0.08445000    0.55304040    0.04860000
opls_140-643    H    0.16645009    0.06258000    0.51955018    0.04860000
opls_146-644    H    0.37249018    0.75556000    0.64214017    0.05340000
opls_146-645    H    0.56426993    0.75603000    0.64446027    0.05340000
opls_146-646    H    0.06437007    0.25557000    0.63869005    0.05340000
opls_146-647    H    0.87249009    0.25556000    0.64077002    0.05340000
