#======================================================================
# Crystal Data Generated By AuToFF
#----------------------------------------------------------------------

data_AuToFF_phase_1

_cell_length_a                         19.7413
_cell_length_b                         25.0964
_cell_length_c                         12.2504
_cell_angle_alpha                      90.00
_cell_angle_beta                       90.00
_cell_angle_gamma                      90.00
_symmetry_space_group_name_H-M_alt     'P 1'
_symmetry_space_group_IT_number        1

loop_
_space_group_symop_operation_xyz
   'x, y, z'

loop_
   _atom_site_label
   _atom_site_type_symbol
   _atom_site_fract_x
   _atom_site_fract_y
   _atom_site_fract_z
   _atom_site_charge
opls_239-0    N    0.56429009    0.56429010    0.45986009    -0.18430000
opls_239-1    N    0.56429009    0.06429010    0.95986009    -0.18430000
opls_239-2    N    0.06429009    0.56429010    0.95986009    -0.18430000
opls_239-3    N    0.06429009    0.06429010    0.45986009    -0.18430000
opls_239-4    N    0.43570991    0.43570990    0.45986009    -0.18430000
opls_239-5    N    0.43570991    0.93570990    0.95986009    -0.18430000
opls_239-6    N    0.93570991    0.43570990    0.95986009    -0.18430000
opls_239-7    N    0.93570991    0.93570990    0.45986009    -0.18430000
opls_239-8    N    0.81428984    0.68570990    0.70986009    -0.18430000
opls_239-9    N    0.81428984    0.18570990    0.20986009    -0.18430000
opls_239-10    N    0.31428984    0.68570990    0.20986009    -0.18430000
opls_239-11    N    0.31428984    0.18570990    0.70986009    -0.18430000
opls_239-12    N    0.68571016    0.81429010    0.70986009    -0.18430000
opls_239-13    N    0.68571016    0.31429010    0.20986009    -0.18430000
opls_239-14    N    0.18571016    0.81429010    0.20986009    -0.18430000
opls_239-15    N    0.18571016    0.31429010    0.70986009    -0.18430000
opls_239-16    N    0.43573979    0.56433991    0.53210018    -0.18590000
opls_239-17    N    0.43573979    0.06433991    0.03210018    -0.18590000
opls_239-18    N    0.93573979    0.56433991    0.03210018    -0.18600000
opls_239-19    N    0.93573979    0.06433991    0.53210018    -0.18590000
opls_239-20    N    0.56426021    0.43566009    0.53210018    -0.18590000
opls_239-21    N    0.56426021    0.93566009    0.03210018    -0.18590000
opls_239-22    N    0.06426021    0.43566009    0.03210018    -0.18600000
opls_239-23    N    0.06426021    0.93566009    0.53210018    -0.18590000
opls_239-24    N    0.68574005    0.68566009    0.78210018    -0.18590000
opls_239-25    N    0.68574005    0.18566009    0.28210018    -0.18590000
opls_239-26    N    0.18574005    0.68566009    0.28210018    -0.18590000
opls_239-27    N    0.18574005    0.18566009    0.78210018    -0.18590000
opls_239-28    N    0.81425995    0.81433991    0.78210018    -0.18590000
opls_239-29    N    0.81425995    0.31433991    0.28210018    -0.18590000
opls_239-30    N    0.31425995    0.81433991    0.28210018    -0.18590000
opls_239-31    N    0.31425995    0.31433991    0.78210018    -0.18590000
opls_239-32    N    0.50000000    0.50000000    0.65595001    -0.15680000
opls_239-33    N    0.50000000    0.00000000    0.15595001    -0.15680000
opls_239-34    N    0.00000000    0.50000000    0.15595001    -0.15680000
opls_239-35    N    0.00000000    0.00000000    0.65595001    -0.15680000
opls_239-36    N    0.75000025    0.75000000    0.90595001    -0.15680000
opls_239-37    N    0.75000025    0.25000000    0.40595001    -0.15680000
opls_239-38    N    0.24999975    0.75000000    0.40595001    -0.15680000
opls_239-39    N    0.24999975    0.25000000    0.90595001    -0.15680000
opls_239-40    N    0.50000000    0.50000000    0.33286015    -0.15640000
opls_239-41    N    0.50000000    0.00000000    0.83286015    -0.15640000
opls_239-42    N    0.00000000    0.50000000    0.83286015    -0.15640000
opls_239-43    N    0.00000000    0.00000000    0.33286015    -0.15640000
opls_239-44    N    0.75000025    0.75000000    0.58286015    -0.15640000
opls_239-45    N    0.75000025    0.25000000    0.08286015    -0.15640000
opls_239-46    N    0.24999975    0.75000000    0.08286015    -0.15640000
opls_239-47    N    0.24999975    0.25000000    0.58286015    -0.15640000
opls_521-48    C    0.53659992    0.46339993    0.71114984    0.04400000
opls_521-49    C    0.53659992    0.96339993    0.21114984    0.04400000
opls_521-50    C    0.03659992    0.46339993    0.21114984    0.04400000
opls_521-51    C    0.03659992    0.96339993    0.71114984    0.04400000
opls_521-52    C    0.46340008    0.53660007    0.71114984    0.04400000
opls_521-53    C    0.46340008    0.03660007    0.21114984    0.04400000
opls_521-54    C    0.96340008    0.53660007    0.21114984    0.04400000
opls_521-55    C    0.96340008    0.03660007    0.71114984    0.04400000
opls_521-56    C    0.78660017    0.78660007    0.96114984    0.04400000
opls_521-57    C    0.78660017    0.28660007    0.46114984    0.04400000
opls_521-58    C    0.28660017    0.78660007    0.46114984    0.04400000
opls_521-59    C    0.28660017    0.28660007    0.96114984    0.04400000
opls_521-60    C    0.71339983    0.71339993    0.96114984    0.04400000
opls_521-61    C    0.71339983    0.21339993    0.46114984    0.04400000
opls_521-62    C    0.21339983    0.71339993    0.46114984    0.04400000
opls_521-63    C    0.21339983    0.21339993    0.96114984    0.04400000
opls_521-64    C    0.53659992    0.53660007    0.27775991    0.04910000
opls_521-65    C    0.53659992    0.03660007    0.77775991    0.04910000
opls_521-66    C    0.03659992    0.53660007    0.77775991    0.04910000
opls_521-67    C    0.03659992    0.03660007    0.27775991    0.04910000
opls_521-68    C    0.46340008    0.46339993    0.27775991    0.04910000
opls_521-69    C    0.46340008    0.96339993    0.77775991    0.04910000
opls_521-70    C    0.96340008    0.46339993    0.77775991    0.04910000
opls_521-71    C    0.96340008    0.96339993    0.27775991    0.04910000
opls_521-72    C    0.78660017    0.71339993    0.52775991    0.04910000
opls_521-73    C    0.78660017    0.21339993    0.02775991    0.04910000
opls_521-74    C    0.28660017    0.71339993    0.02775991    0.04910000
opls_521-75    C    0.28660017    0.21339993    0.52775991    0.04910000
opls_521-76    C    0.71339983    0.78660007    0.52775991    0.04910000
opls_521-77    C    0.71339983    0.28660007    0.02775991    0.04910000
opls_521-78    C    0.21339983    0.78660007    0.02775991    0.04910000
opls_521-79    C    0.21339983    0.28660007    0.52775991    0.04910000
opls_522-80    C    0.53659992    0.46339993    0.82375024    -0.08970000
opls_522-81    C    0.53659992    0.96339993    0.32375024    -0.08970000
opls_522-82    C    0.03659992    0.46339993    0.32375024    -0.08970000
opls_522-83    C    0.03659992    0.96339993    0.82375024    -0.08970000
opls_522-84    C    0.46340008    0.53660007    0.82375024    -0.08970000
opls_522-85    C    0.46340008    0.03660007    0.32375024    -0.08970000
opls_522-86    C    0.96340008    0.53660007    0.32375024    -0.08970000
opls_522-87    C    0.96340008    0.03660007    0.82375024    -0.08970000
opls_522-88    C    0.78660017    0.78660007    0.07375024    -0.08970000
opls_522-89    C    0.78660017    0.28660007    0.57375024    -0.08970000
opls_522-90    C    0.28660017    0.78660007    0.57375024    -0.08970000
opls_522-91    C    0.28660017    0.28660007    0.07375024    -0.08970000
opls_522-92    C    0.71339983    0.71339993    0.07375024    -0.08970000
opls_522-93    C    0.71339983    0.21339993    0.57375024    -0.08970000
opls_522-94    C    0.21339983    0.71339993    0.57375024    -0.08970000
opls_522-95    C    0.21339983    0.21339993    0.07375024    -0.08970000
opls_522-96    C    0.53659992    0.53660007    0.16516032    -0.09180000
opls_522-97    C    0.53659992    0.03660007    0.66516032    -0.09180000
opls_522-98    C    0.03659992    0.53660007    0.66516032    -0.09180000
opls_522-99    C    0.03659992    0.03660007    0.16516032    -0.09180000
opls_522-100    C    0.46340008    0.46339993    0.16516032    -0.09180000
opls_522-101    C    0.46340008    0.96339993    0.66516032    -0.09180000
opls_522-102    C    0.96340008    0.46339993    0.66516032    -0.09180000
opls_522-103    C    0.96340008    0.96339993    0.16516032    -0.09180000
opls_522-104    C    0.78660017    0.71339993    0.41516032    -0.09180000
opls_522-105    C    0.78660017    0.21339993    0.91516032    -0.09180000
opls_522-106    C    0.28660017    0.71339993    0.91516032    -0.09180000
opls_522-107    C    0.28660017    0.21339993    0.41516032    -0.09180000
opls_522-108    C    0.71339983    0.78660007    0.41516032    -0.09180000
opls_522-109    C    0.71339983    0.28660007    0.91516032    -0.09180000
opls_522-110    C    0.21339983    0.78660007    0.91516032    -0.09180000
opls_522-111    C    0.21339983    0.28660007    0.41516032    -0.09180000
opls_142-112    C    0.57152011    0.42720988    0.63905995    -0.02860000
opls_142-113    C    0.57152011    0.92720988    0.13905995    -0.02860000
opls_142-114    C    0.07152011    0.42720988    0.13905995    -0.02860000
opls_142-115    C    0.07152011    0.92720988    0.63905995    -0.02860000
opls_142-116    C    0.42847989    0.57279012    0.63905995    -0.02860000
opls_142-117    C    0.42847989    0.07279012    0.13905995    -0.02860000
opls_142-118    C    0.92847989    0.57279012    0.13905995    -0.02860000
opls_142-119    C    0.92847989    0.07279012    0.63905995    -0.02860000
opls_142-120    C    0.82151986    0.82279012    0.88905995    -0.02860000
opls_142-121    C    0.82151986    0.32279012    0.38905995    -0.02860000
opls_142-122    C    0.32151986    0.82279012    0.38905995    -0.02860000
opls_142-123    C    0.32151986    0.32279012    0.88905995    -0.02860000
opls_142-124    C    0.67848014    0.67720988    0.88905995    -0.02860000
opls_142-125    C    0.67848014    0.17720988    0.38905995    -0.02860000
opls_142-126    C    0.17848014    0.67720988    0.38905995    -0.02860000
opls_142-127    C    0.17848014    0.17720988    0.88905995    -0.02860000
opls_142-128    C    0.57227994    0.57227013    0.35327010    -0.01850000
opls_142-129    C    0.57227994    0.07227013    0.85327010    -0.01850000
opls_142-130    C    0.07227994    0.57227013    0.85327010    -0.01850000
opls_142-131    C    0.07227994    0.07227013    0.35327010    -0.01850000
opls_142-132    C    0.42772006    0.42772987    0.35327010    -0.01850000
opls_142-133    C    0.42772006    0.92772987    0.85327010    -0.01850000
opls_142-134    C    0.92772006    0.42772987    0.85327010    -0.01850000
opls_142-135    C    0.92772006    0.92772987    0.35327010    -0.01850000
opls_142-136    C    0.82228019    0.67772987    0.60327010    -0.01850000
opls_142-137    C    0.82228019    0.17772987    0.10327010    -0.01850000
opls_142-138    C    0.32228019    0.67772987    0.10327010    -0.01850000
opls_142-139    C    0.32228019    0.17772987    0.60327010    -0.01850000
opls_142-140    C    0.67771981    0.82227013    0.60327010    -0.01850000
opls_142-141    C    0.67771981    0.32227013    0.10327010    -0.01850000
opls_142-142    C    0.17771981    0.82227013    0.10327010    -0.01850000
opls_142-143    C    0.17771981    0.32227013    0.60327010    -0.01850000
opls_916-144    C    0.40427024    0.40491983    0.54379041    0.05560000
opls_916-145    C    0.40427024    0.90491983    0.04379041    0.05560000
opls_916-146    C    0.90427024    0.40491983    0.04379041    0.05560000
opls_916-147    C    0.90427024    0.90491983    0.54379041    0.05560000
opls_916-148    C    0.59572976    0.59508017    0.54379041    0.05560000
opls_916-149    C    0.59572976    0.09508017    0.04379041    0.05560000
opls_916-150    C    0.09572976    0.59508017    0.04379041    0.05560000
opls_916-151    C    0.09572976    0.09508017    0.54379041    0.05560000
opls_916-152    C    0.65426998    0.84508017    0.79379041    0.05560000
opls_916-153    C    0.65426998    0.34508017    0.29379041    0.05560000
opls_916-154    C    0.15426998    0.84508017    0.29379041    0.05560000
opls_916-155    C    0.15426998    0.34508017    0.79379041    0.05560000
opls_916-156    C    0.84573002    0.65491983    0.79379041    0.05560000
opls_916-157    C    0.84573002    0.15491983    0.29379041    0.05560000
opls_916-158    C    0.34573002    0.65491983    0.29379041    0.05560000
opls_916-159    C    0.34573002    0.15491983    0.79379041    0.05560000
opls_916-160    C    0.59530021    0.40469988    0.44785966    0.05000000
opls_916-161    C    0.59530021    0.90469988    0.94785966    0.05000000
opls_916-162    C    0.09530021    0.40469988    0.94785966    0.05000000
opls_916-163    C    0.09530021    0.90469988    0.44785966    0.05000000
opls_916-164    C    0.40469979    0.59530012    0.44785966    0.05000000
opls_916-165    C    0.40469979    0.09530012    0.94785966    0.05000000
opls_916-166    C    0.90469979    0.59530012    0.94785966    0.05000000
opls_916-167    C    0.90469979    0.09530012    0.44785966    0.05000000
opls_916-168    C    0.84529995    0.84530012    0.69785966    0.05000000
opls_916-169    C    0.84529995    0.34530012    0.19785966    0.05000000
opls_916-170    C    0.34529995    0.84530012    0.19785966    0.05000000
opls_916-171    C    0.34529995    0.34530012    0.69785966    0.05000000
opls_916-172    C    0.65470005    0.65469988    0.69785966    0.05000000
opls_916-173    C    0.65470005    0.15469988    0.19785966    0.05000000
opls_916-174    C    0.15470005    0.65469988    0.19785966    0.05000000
opls_916-175    C    0.15470005    0.15469988    0.69785966    0.05000000
opls_145-176    C    0.62718007    0.42929982    0.36031966    -0.06740000
opls_145-177    C    0.62718007    0.92929982    0.86031966    -0.06740000
opls_145-178    C    0.12718007    0.42929982    0.86031966    -0.06740000
opls_145-179    C    0.12718007    0.92929982    0.36031966    -0.06740000
opls_145-180    C    0.37281993    0.57070018    0.36031966    -0.06740000
opls_145-181    C    0.37281993    0.07070018    0.86031966    -0.06740000
opls_145-182    C    0.87281993    0.57070018    0.86031966    -0.06740000
opls_145-183    C    0.87281993    0.07070018    0.36031966    -0.06740000
opls_145-184    C    0.87717982    0.82070018    0.61031966    -0.06740000
opls_145-185    C    0.87717982    0.32070018    0.11031966    -0.06740000
opls_145-186    C    0.37717982    0.82070018    0.11031966    -0.06740000
opls_145-187    C    0.37717982    0.32070018    0.61031966    -0.06740000
opls_145-188    C    0.62282018    0.67929982    0.61031966    -0.06740000
opls_145-189    C    0.62282018    0.17929982    0.11031966    -0.06740000
opls_145-190    C    0.12282018    0.67929982    0.11031966    -0.06740000
opls_145-191    C    0.12282018    0.17929982    0.61031966    -0.06740000
opls_145-192    C    0.59367012    0.34944016    0.45444965    -0.08020000
opls_145-193    C    0.59367012    0.84944016    0.95444965    -0.08020000
opls_145-194    C    0.09367012    0.34944016    0.95444965    -0.08020000
opls_145-195    C    0.09367012    0.84944016    0.45444965    -0.08020000
opls_145-196    C    0.40632988    0.65055984    0.45444965    -0.08020000
opls_145-197    C    0.40632988    0.15055984    0.95444965    -0.08020000
opls_145-198    C    0.90632988    0.65055984    0.95444965    -0.08020000
opls_145-199    C    0.90632988    0.15055984    0.45444965    -0.08020000
opls_145-200    C    0.84366987    0.90055984    0.70444965    -0.08020000
opls_145-201    C    0.84366987    0.40055984    0.20444965    -0.08020000
opls_145-202    C    0.34366987    0.90055984    0.20444965    -0.08020000
opls_145-203    C    0.34366987    0.40055984    0.70444965    -0.08020000
opls_145-204    C    0.65633013    0.59944016    0.70444965    -0.08020000
opls_145-205    C    0.65633013    0.09944016    0.20444965    -0.08020000
opls_145-206    C    0.15633013    0.59944016    0.20444965    -0.08020000
opls_145-207    C    0.15633013    0.09944016    0.70444965    -0.08020000
opls_145-208    C    0.59306023    0.64933018    0.53099001    -0.08200000
opls_145-209    C    0.59306023    0.14933018    0.03099001    -0.08200000
opls_145-210    C    0.09306023    0.64933018    0.03099001    -0.08200000
opls_145-211    C    0.09306023    0.14933018    0.53099001    -0.08200000
opls_145-212    C    0.40693977    0.35066982    0.53099001    -0.08200000
opls_145-213    C    0.40693977    0.85066982    0.03099001    -0.08200000
opls_145-214    C    0.90693977    0.35066982    0.03099001    -0.08200000
opls_145-215    C    0.90693977    0.85066982    0.53099001    -0.08200000
opls_145-216    C    0.84305998    0.60066982    0.78099001    -0.08200000
opls_145-217    C    0.84305998    0.10066982    0.28099001    -0.08200000
opls_145-218    C    0.34305998    0.60066982    0.28099001    -0.08210000
opls_145-219    C    0.34305998    0.10066982    0.78099001    -0.08200000
opls_145-220    C    0.65694002    0.89933018    0.78099001    -0.08200000
opls_145-221    C    0.65694002    0.39933018    0.28099001    -0.08200000
opls_145-222    C    0.15694002    0.89933018    0.28099001    -0.08200000
opls_145-223    C    0.15694002    0.39933018    0.78099001    -0.08200000
opls_145-224    C    0.62657981    0.56947012    0.62522040    -0.05890000
opls_145-225    C    0.62657981    0.06947012    0.12522040    -0.05890000
opls_145-226    C    0.12657981    0.56947012    0.12522040    -0.05890000
opls_145-227    C    0.12657981    0.06947012    0.62522040    -0.05890000
opls_145-228    C    0.37342019    0.43052988    0.62522040    -0.05890000
opls_145-229    C    0.37342019    0.93052988    0.12522040    -0.05890000
opls_145-230    C    0.87342019    0.43052988    0.12522040    -0.05890000
opls_145-231    C    0.87342019    0.93052988    0.62522040    -0.05890000
opls_145-232    C    0.87658006    0.68052988    0.87522040    -0.05890000
opls_145-233    C    0.87658006    0.18052988    0.37522040    -0.05890000
opls_145-234    C    0.37658006    0.68052988    0.37522040    -0.05890000
opls_145-235    C    0.37658006    0.18052988    0.87522040    -0.05890000
opls_145-236    C    0.62341994    0.81947012    0.87522040    -0.05890000
opls_145-237    C    0.62341994    0.31947012    0.37522040    -0.05890000
opls_145-238    C    0.12341994    0.81947012    0.37522040    -0.05890000
opls_145-239    C    0.12341994    0.31947012    0.87522040    -0.05890000
opls_523-240    C    0.50000000    0.50000000    0.10755975    -0.11530000
opls_523-241    C    0.50000000    0.00000000    0.60755975    -0.11530000
opls_523-242    C    0.00000000    0.50000000    0.60755975    -0.11530000
opls_523-243    C    0.00000000    0.00000000    0.10755975    -0.11530000
opls_523-244    C    0.75000025    0.75000000    0.35755975    -0.11530000
opls_523-245    C    0.75000025    0.25000000    0.85755975    -0.11540000
opls_523-246    C    0.24999975    0.75000000    0.85755975    -0.11530000
opls_523-247    C    0.24999975    0.25000000    0.35755975    -0.11530000
opls_523-248    C    0.50000000    0.50000000    0.88135000    -0.11300000
opls_523-249    C    0.50000000    0.00000000    0.38135000    -0.11300000
opls_523-250    C    0.00000000    0.50000000    0.38135000    -0.11310000
opls_523-251    C    0.00000000    0.00000000    0.88135000    -0.11300000
opls_523-252    C    0.75000025    0.75000000    0.13135000    -0.11300000
opls_523-253    C    0.75000025    0.25000000    0.63135000    -0.11300000
opls_523-254    C    0.24999975    0.75000000    0.63135000    -0.11300000
opls_523-255    C    0.24999975    0.25000000    0.13135000    -0.11300000
opls_525-256    H    0.56748998    0.43250984    0.87024016    0.09670000
opls_525-257    H    0.56748998    0.93250984    0.37024016    0.09670000
opls_525-258    H    0.06748998    0.43250984    0.37024016    0.09670000
opls_525-259    H    0.06748998    0.93250984    0.87024016    0.09670000
opls_525-260    H    0.43251002    0.56749016    0.87024016    0.09670000
opls_525-261    H    0.43251002    0.06749016    0.37024016    0.09670000
opls_525-262    H    0.93251002    0.56749016    0.37024016    0.09670000
opls_525-263    H    0.93251002    0.06749016    0.87024016    0.09670000
opls_525-264    H    0.81749024    0.81749016    0.12024016    0.09670000
opls_525-265    H    0.81749024    0.31749016    0.62024016    0.09670000
opls_525-266    H    0.31749024    0.81749016    0.62024016    0.09670000
opls_525-267    H    0.31749024    0.31749016    0.12024016    0.09670000
opls_525-268    H    0.68250976    0.68250984    0.12024016    0.09670000
opls_525-269    H    0.68250976    0.18250984    0.62024016    0.09670000
opls_525-270    H    0.18250976    0.68250984    0.62024016    0.09670000
opls_525-271    H    0.18250976    0.18250984    0.12024016    0.09670000
opls_525-272    H    0.56396995    0.56397013    0.12396983    0.11710000
opls_525-273    H    0.56396995    0.06397013    0.62396983    0.11710000
opls_525-274    H    0.06396995    0.56397013    0.62396983    0.11710000
opls_525-275    H    0.06396995    0.06397013    0.12396983    0.11710000
opls_525-276    H    0.43603005    0.43602987    0.12396983    0.11710000
opls_525-277    H    0.43603005    0.93602987    0.62396983    0.11710000
opls_525-278    H    0.93603005    0.43602987    0.62396983    0.11710000
opls_525-279    H    0.93603005    0.93602987    0.12396983    0.11710000
opls_525-280    H    0.81397020    0.68602987    0.37396983    0.11710000
opls_525-281    H    0.81397020    0.18602987    0.87396983    0.11710000
opls_525-282    H    0.31397020    0.68602987    0.87396983    0.11710000
opls_525-283    H    0.31397020    0.18602987    0.37396983    0.11710000
opls_525-284    H    0.68602980    0.81397013    0.37396983    0.11710000
opls_525-285    H    0.68602980    0.31397013    0.87396983    0.11710000
opls_525-286    H    0.18602980    0.81397013    0.87396983    0.11710000
opls_525-287    H    0.18602980    0.31397013    0.37396983    0.11710000
opls_146-288    H    0.62846013    0.47457006    0.35479005    0.12900000
opls_146-289    H    0.62846013    0.97457006    0.85479005    0.12900000
opls_146-290    H    0.12846013    0.47457006    0.85479005    0.12900000
opls_146-291    H    0.12846013    0.97457006    0.35479005    0.12890000
opls_146-292    H    0.37153987    0.52542994    0.35479005    0.12900000
opls_146-293    H    0.37153987    0.02542994    0.85479005    0.12900000
opls_146-294    H    0.87153987    0.52542994    0.85479005    0.12900000
opls_146-295    H    0.87153987    0.02542994    0.35479005    0.12900000
opls_146-296    H    0.87845988    0.77542994    0.60479005    0.12900000
opls_146-297    H    0.87845988    0.27542994    0.10479005    0.12890000
opls_146-298    H    0.37845988    0.77542994    0.10479005    0.12890000
opls_146-299    H    0.37845988    0.27542994    0.60479005    0.12900000
opls_146-300    H    0.62154012    0.72457006    0.60479005    0.12900000
opls_146-301    H    0.62154012    0.22457006    0.10479005    0.12900000
opls_146-302    H    0.12154012    0.72457006    0.10479005    0.12900000
opls_146-303    H    0.12154012    0.22457006    0.60479005    0.12900000
opls_146-304    H    0.56743021    0.32923009    0.52616976    0.10000000
opls_146-305    H    0.56743021    0.82923009    0.02616976    0.10000000
opls_146-306    H    0.06743021    0.32923009    0.02616976    0.09990000
opls_146-307    H    0.06743021    0.82923009    0.52616976    0.10000000
opls_146-308    H    0.43256979    0.67076991    0.52616976    0.10000000
opls_146-309    H    0.43256979    0.17076991    0.02616976    0.10000000
opls_146-310    H    0.93256979    0.67076991    0.02616976    0.10000000
opls_146-311    H    0.93256979    0.17076991    0.52616976    0.10000000
opls_146-312    H    0.81742996    0.92076991    0.77616976    0.10000000
opls_146-313    H    0.81742996    0.42076991    0.27616976    0.10000000
opls_146-314    H    0.31742996    0.92076991    0.27616976    0.10000000
opls_146-315    H    0.31742996    0.42076991    0.77616976    0.10000000
opls_146-316    H    0.68257004    0.57923009    0.77616976    0.10000000
opls_146-317    H    0.68257004    0.07923009    0.27616976    0.10000000
opls_146-318    H    0.18257004    0.57923009    0.27616976    0.10000000
opls_146-319    H    0.18257004    0.07923009    0.77616976    0.10000000
opls_146-320    H    0.56685021    0.66721004    0.45667978    0.10780000
opls_146-321    H    0.56685021    0.16721004    0.95667978    0.10780000
opls_146-322    H    0.06685021    0.66721004    0.95667978    0.10770000
opls_146-323    H    0.06685021    0.16721004    0.45667978    0.10780000
opls_146-324    H    0.43314979    0.33278996    0.45667978    0.10780000
opls_146-325    H    0.43314979    0.83278996    0.95667978    0.10780000
opls_146-326    H    0.93314979    0.33278996    0.95667978    0.10780000
opls_146-327    H    0.93314979    0.83278996    0.45667978    0.10780000
opls_146-328    H    0.81684995    0.58278996    0.70667978    0.10780000
opls_146-329    H    0.81684995    0.08278996    0.20667978    0.10780000
opls_146-330    H    0.31684995    0.58278996    0.20667978    0.10780000
opls_146-331    H    0.31684995    0.08278996    0.70667978    0.10780000
opls_146-332    H    0.68315005    0.91721004    0.70667978    0.10780000
opls_146-333    H    0.68315005    0.41721004    0.20667978    0.10780000
opls_146-334    H    0.18315005    0.91721004    0.20667978    0.10780000
opls_146-335    H    0.18315005    0.41721004    0.70667978    0.10780000
opls_146-336    H    0.62734977    0.52412019    0.62668974    0.13150000
opls_146-337    H    0.62734977    0.02412019    0.12668974    0.13150000
opls_146-338    H    0.12734977    0.52412019    0.12668974    0.13150000
opls_146-339    H    0.12734977    0.02412019    0.62668974    0.13150000
opls_146-340    H    0.37265023    0.47587981    0.62668974    0.13150000
opls_146-341    H    0.37265023    0.97587981    0.12668974    0.13140000
opls_146-342    H    0.87265023    0.47587981    0.12668974    0.13150000
opls_146-343    H    0.87265023    0.97587981    0.62668974    0.13150000
opls_146-344    H    0.87735002    0.72587981    0.87668974    0.13150000
opls_146-345    H    0.87735002    0.22587981    0.37668974    0.13150000
opls_146-346    H    0.37735002    0.72587981    0.37668974    0.13150000
opls_146-347    H    0.37735002    0.22587981    0.87668974    0.13150000
opls_146-348    H    0.62264998    0.77412019    0.87668974    0.13150000
opls_146-349    H    0.62264998    0.27412019    0.37668974    0.13150000
opls_146-350    H    0.12264998    0.77412019    0.37668974    0.13150000
opls_146-351    H    0.12264998    0.27412019    0.87668974    0.13150000
opls_144-352    H    0.39634978    0.60684002    0.67220009    0.08810000
opls_144-353    H    0.39634978    0.10684002    0.17220009    0.08810000
opls_144-354    H    0.89634978    0.60684002    0.17220009    0.08810000
opls_144-355    H    0.89634978    0.10684002    0.67220009    0.08810000
opls_144-356    H    0.60365022    0.39315998    0.67220009    0.08810000
opls_144-357    H    0.60365022    0.89315998    0.17220009    0.08810000
opls_144-358    H    0.10365022    0.39315998    0.17220009    0.08810000
opls_144-359    H    0.10365022    0.89315998    0.67220009    0.08810000
opls_144-360    H    0.64635004    0.64315998    0.92220009    0.08810000
opls_144-361    H    0.64635004    0.14315998    0.42220009    0.08810000
opls_144-362    H    0.14635004    0.64315998    0.42220009    0.08810000
opls_144-363    H    0.14635004    0.14315998    0.92220009    0.08810000
opls_144-364    H    0.85364996    0.85684002    0.92220009    0.08810000
opls_144-365    H    0.85364996    0.35684002    0.42220009    0.08810000
opls_144-366    H    0.35364996    0.85684002    0.42220009    0.08810000
opls_144-367    H    0.35364996    0.35684002    0.92220009    0.08810000
opls_144-368    H    0.60604013    0.60600006    0.32307027    0.10690000
opls_144-369    H    0.60604013    0.10600006    0.82307027    0.10690000
opls_144-370    H    0.10604013    0.60600006    0.82307027    0.10690000
opls_144-371    H    0.10604013    0.10600006    0.32307027    0.10690000
opls_144-372    H    0.39395987    0.39399994    0.32307027    0.10680000
opls_144-373    H    0.39395987    0.89399994    0.82307027    0.10690000
opls_144-374    H    0.89395987    0.39399994    0.82307027    0.10690000
opls_144-375    H    0.89395987    0.89399994    0.32307027    0.10690000
opls_144-376    H    0.85603988    0.64399994    0.57307027    0.10690000
opls_144-377    H    0.85603988    0.14399994    0.07307027    0.10690000
opls_144-378    H    0.35603988    0.64399994    0.07307027    0.10690000
opls_144-379    H    0.35603988    0.14399994    0.57307027    0.10690000
opls_144-380    H    0.64396012    0.85600006    0.57307027    0.10690000
opls_144-381    H    0.64396012    0.35600006    0.07307027    0.10690000
opls_144-382    H    0.14396012    0.85600006    0.07307027    0.10690000
opls_144-383    H    0.14396012    0.35600006    0.57307027    0.10690000
opls_526-384    H    0.50000000    0.50000000    0.03414991    0.08090000
opls_526-385    H    0.50000000    0.00000000    0.53414991    0.08090000
opls_526-386    H    0.00000000    0.50000000    0.53414991    0.08090000
opls_526-387    H    0.00000000    0.00000000    0.03414991    0.08090000
opls_526-388    H    0.75000025    0.75000000    0.28414991    0.08090000
opls_526-389    H    0.75000025    0.25000000    0.78414991    0.08090000
opls_526-390    H    0.24999975    0.75000000    0.78414991    0.08090000
opls_526-391    H    0.24999975    0.25000000    0.28414991    0.08090000
opls_526-392    H    0.50000000    0.50000000    0.95475984    0.08580000
opls_526-393    H    0.50000000    0.00000000    0.45475984    0.08580000
opls_526-394    H    0.00000000    0.50000000    0.45475984    0.08580000
opls_526-395    H    0.00000000    0.00000000    0.95475984    0.08580000
opls_526-396    H    0.75000025    0.75000000    0.20475984    0.08580000
opls_526-397    H    0.75000025    0.25000000    0.70475984    0.08580000
opls_526-398    H    0.24999975    0.75000000    0.70475984    0.08580000
opls_526-399    H    0.24999975    0.25000000    0.20475984    0.08580000
MOF2_B_3-400    B    0.26468014    0.07147997    0.44346960    0.14030000
MOF2_B_3-401    B    0.26468014    0.57147997    0.94346960    0.14030000
MOF2_B_3-402    B    0.76468014    0.07147997    0.94346960    0.14030000
MOF2_B_3-403    B    0.76468014    0.57147997    0.44346960    0.14030000
MOF2_B_3-404    B    0.73531986    0.92852003    0.44346960    0.14030000
MOF2_B_3-405    B    0.73531986    0.42852003    0.94346960    0.14030000
MOF2_B_3-406    B    0.23531986    0.92852003    0.94346960    0.14030000
MOF2_B_3-407    B    0.23531986    0.42852003    0.44346960    0.14030000
MOF2_B_3-408    B    0.51467988    0.17852003    0.69346960    0.14020000
MOF2_B_3-409    B    0.51467988    0.67852003    0.19346960    0.14030000
MOF2_B_3-410    B    0.01467988    0.17852003    0.19346960    0.14030000
MOF2_B_3-411    B    0.01467988    0.67852003    0.69346960    0.14030000
MOF2_B_3-412    B    0.98532012    0.32147997    0.69346960    0.14030000
MOF2_B_3-413    B    0.98532012    0.82147997    0.19346960    0.14030000
MOF2_B_3-414    B    0.48532012    0.32147997    0.19346960    0.14030000
MOF2_B_3-415    B    0.48532012    0.82147997    0.69346960    0.14030000
MOF2_F_-416    F    0.20384980    0.07759997    0.50383008    -0.07340000
MOF2_F_-417    F    0.20384980    0.57759997    0.00383008    -0.07340000
MOF2_F_-418    F    0.70384980    0.07759997    0.00383008    -0.07340000
MOF2_F_-419    F    0.70384980    0.57759997    0.50383008    -0.07340000
MOF2_F_-420    F    0.79615020    0.92240003    0.50383008    -0.07340000
MOF2_F_-421    F    0.79615020    0.42240003    0.00383008    -0.07340000
MOF2_F_-422    F    0.29615020    0.92240003    0.00383008    -0.07340000
MOF2_F_-423    F    0.29615020    0.42240003    0.50383008    -0.07340000
MOF2_F_-424    F    0.45385005    0.17240003    0.75383008    -0.07340000
MOF2_F_-425    F    0.45385005    0.67240003    0.25383008    -0.07340000
MOF2_F_-426    F    0.95385005    0.17240003    0.25383008    -0.07340000
MOF2_F_-427    F    0.95385005    0.67240003    0.75383008    -0.07340000
MOF2_F_-428    F    0.04614995    0.32759997    0.75383008    -0.07340000
MOF2_F_-429    F    0.04614995    0.82759997    0.25383008    -0.07340000
MOF2_F_-430    F    0.54614995    0.32759997    0.25383008    -0.07340000
MOF2_F_-431    F    0.54614995    0.82759997    0.75383008    -0.07340000
MOF2_F_-432    F    0.30883984    0.03662995    0.49989960    -0.08990000
MOF2_F_-433    F    0.30883984    0.53662995    0.99989960    -0.08990000
MOF2_F_-434    F    0.80883984    0.03662995    0.99989960    -0.08990000
MOF2_F_-435    F    0.80883984    0.53662995    0.49989960    -0.08990000
MOF2_F_-436    F    0.69116016    0.96337005    0.49989960    -0.08990000
MOF2_F_-437    F    0.69116016    0.46337005    0.99989960    -0.08990000
MOF2_F_-438    F    0.19116016    0.96337005    0.99989960    -0.08990000
MOF2_F_-439    F    0.19116016    0.46337005    0.49989960    -0.08990000
MOF2_F_-440    F    0.55884010    0.21337005    0.74989960    -0.08990000
MOF2_F_-441    F    0.55884010    0.71337005    0.24989960    -0.08990000
MOF2_F_-442    F    0.05884010    0.21337005    0.24989960    -0.08990000
MOF2_F_-443    F    0.05884010    0.71337005    0.74989960    -0.08990000
MOF2_F_-444    F    0.94115990    0.28662995    0.74989960    -0.08990000
MOF2_F_-445    F    0.94115990    0.78662995    0.24989960    -0.08990000
MOF2_F_-446    F    0.44115990    0.28662995    0.24989960    -0.08990000
MOF2_F_-447    F    0.44115990    0.78662995    0.74989960    -0.08990000
MOF2_F_-448    F    0.25002001    0.04957006    0.33945014    -0.08880000
MOF2_F_-449    F    0.25002001    0.54957006    0.83945014    -0.08880000
MOF2_F_-450    F    0.75002001    0.04957006    0.83945014    -0.08880000
MOF2_F_-451    F    0.75002001    0.54957006    0.33945014    -0.08880000
MOF2_F_-452    F    0.74997999    0.95042994    0.33945014    -0.08880000
MOF2_F_-453    F    0.74997999    0.45042994    0.83945014    -0.08880000
MOF2_F_-454    F    0.24997999    0.95042994    0.83945014    -0.08880000
MOF2_F_-455    F    0.24997999    0.45042994    0.33945014    -0.08880000
MOF2_F_-456    F    0.50001976    0.20042994    0.58945014    -0.08880000
MOF2_F_-457    F    0.50001976    0.70042994    0.08945014    -0.08880000
MOF2_F_-458    F    0.00001976    0.20042994    0.08945014    -0.08880000
MOF2_F_-459    F    0.00001976    0.70042994    0.58945014    -0.08880000
MOF2_F_-460    F    0.99998024    0.29957006    0.58945014    -0.08890000
MOF2_F_-461    F    0.99998024    0.79957006    0.08945014    -0.08880000
MOF2_F_-462    F    0.49998024    0.29957006    0.08945014    -0.08880000
MOF2_F_-463    F    0.49998024    0.79957006    0.58945014    -0.08880000
MOF2_F_-464    F    0.29647997    0.12182982    0.43059982    -0.09920000
MOF2_F_-465    F    0.29647997    0.62182982    0.93059982    -0.09920000
MOF2_F_-466    F    0.79647997    0.12182982    0.93059982    -0.09920000
MOF2_F_-467    F    0.79647997    0.62182982    0.43059982    -0.09920000
MOF2_F_-468    F    0.70352003    0.87817018    0.43059982    -0.09920000
MOF2_F_-469    F    0.70352003    0.37817018    0.93059982    -0.09920000
MOF2_F_-470    F    0.20352003    0.87817018    0.93059982    -0.09920000
MOF2_F_-471    F    0.20352003    0.37817018    0.43059982    -0.09920000
MOF2_F_-472    F    0.54648022    0.12817018    0.68059982    -0.09920000
MOF2_F_-473    F    0.54648022    0.62817018    0.18059982    -0.09920000
MOF2_F_-474    F    0.04648022    0.12817018    0.18059982    -0.09920000
MOF2_F_-475    F    0.04648022    0.62817018    0.68059982    -0.09920000
MOF2_F_-476    F    0.95351978    0.37182982    0.68059982    -0.09920000
MOF2_F_-477    F    0.95351978    0.87182982    0.18059982    -0.09930000
MOF2_F_-478    F    0.45351978    0.37182982    0.18059982    -0.09920000
MOF2_F_-479    F    0.45351978    0.87182982    0.68059982    -0.09920000
F2_Co6+2-480    Co    0.50000000    0.50000000    0.49585973    0.42000000
F2_Co6+2-481    Co    0.50000000    0.00000000    0.99585973    0.42000000
F2_Co6+2-482    Co    0.00000000    0.50000000    0.99585973    0.42000000
F2_Co6+2-483    Co    0.00000000    0.00000000    0.49585973    0.41990000
F2_Co6+2-484    Co    0.75000025    0.75000000    0.74585973    0.42000000
F2_Co6+2-485    Co    0.75000025    0.25000000    0.24585973    0.42000000
F2_Co6+2-486    Co    0.24999975    0.75000000    0.24585973    0.42000000
F2_Co6+2-487    Co    0.24999975    0.25000000    0.74585973    0.42000000
