#======================================================================
# Crystal Data Generated By AuToFF
#----------------------------------------------------------------------

data_AuToFF_phase_1

_cell_length_a                         52.2000
_cell_length_b                         52.2000
_cell_length_c                         3.8000
_cell_angle_alpha                      90.00
_cell_angle_beta                       90.00
_cell_angle_gamma                      120.00
_symmetry_space_group_name_H-M_alt     'P 1'
_symmetry_space_group_IT_number        1

loop_
_space_group_symop_operation_xyz
   'x, y, z'

loop_
   _atom_site_label
   _atom_site_type_symbol
   _atom_site_fract_x
   _atom_site_fract_y
   _atom_site_fract_z
   _atom_site_charge
opls_166-0    C    0.91955004    0.94723992    0.98606053    0.17090000
opls_507-1    C    0.72863006    0.88840993    0.02061053    0.18710000
opls_716-2    C    0.74199999    0.91882987    0.06597105    -0.19630000
opls_716-3    C    0.71977007    0.92568994    0.05331053    -0.19710000
opls_145-4    C    0.82388005    0.93149994    0.78651053    -0.06130000
opls_145-5    C    0.79299989    0.91587985    0.78832105    -0.11290000
opls_145-6    C    0.94569998    0.00046011    0.96902105    -0.19620000
opls_700-7    C    0.97288998    0.00078993    0.97582105    0.02400000
opls_166-8    C    0.41390003    0.72072995    0.03347105    0.17230000
opls_507-9    C    0.63945009    0.76894002    0.08877105    0.21930000
opls_507-10    C    0.60488993    0.77964002    0.06862105    0.18670000
opls_716-11    C    0.59155004    0.74964988    0.15128947    -0.17120000
opls_716-12    C    0.61378993    0.74276991    0.16147105    -0.19630000
opls_145-13    C    0.50942986    0.73531988    0.84068947    -0.06680000
opls_145-14    C    0.54031989    0.75088997    0.83657105    -0.13110000
opls_145-15    C    0.38757989    0.66750998    0.00825000    -0.21030000
opls_700-16    C    0.36040998    0.66724984    0.02005000    0.02120000
opls_145-17    C    0.38764989    0.72146988    0.03575000    -0.20770000
opls_700-18    C    0.36044994    0.69459987    0.02411053    0.02130000
opls_166-19    C    0.91948997    0.97346998    0.96957895    0.17170000
opls_543-20    C    0.69398986    0.79594983    0.00920000    0.21020000
opls_543-21    C    0.72858005    0.84118998    0.98501053    0.18230000
opls_716-22    C    0.74184988    0.82407984    0.93707895    -0.19630000
opls_716-23    C    0.71961991    0.79499997    0.95551053    -0.19710000
opls_145-24    C    0.82426001    0.89353994    0.18900000    -0.06220000
opls_145-25    C    0.79337007    0.87827002    0.19712105    -0.17180000
opls_145-26    C    0.94582996    0.94657984    0.98566053    -0.19220000
opls_142-27    C    0.66673985    0.89723985    0.96232895    -0.21270000
opls_142-28    C    0.66672000    0.77055992    0.05815000    -0.21390000
opls_145-29    C    0.83950996    0.92023984    0.98526053    -0.20960000
opls_700-30    C    0.58949996    0.79530988    0.01666053    -0.06010000
opls_145-31    C    0.49400995    0.74759001    0.02057895    -0.23330000
opls_700-32    C    0.55628998    0.77870985    0.01841053    0.06550000
opls_166-33    C    0.41387007    0.69447002    0.01037895    0.17640000
opls_543-34    C    0.63943006    0.87159001    0.93692105    0.21240000
opls_543-35    C    0.60485999    0.82635982    0.96265000    0.18210000
opls_716-36    C    0.59148002    0.84299989    0.88235000    -0.17120000
opls_716-37    C    0.61371987    0.87209989    0.86862105    -0.19710000
opls_145-38    C    0.50950992    0.77531985    0.19947895    -0.07020000
opls_145-39    C    0.54040993    0.79060990    0.20143947    -0.12340000
opls_507-40    C    0.69405995    0.89910993    0.00000000    0.21940000
opls_700-41    C    0.74399992    0.87248988    0.00000000    -0.08130000
opls_700-42    C    0.77723001    0.88909987    0.00000000    0.06560000
opls_700-43    C    0.97284005    0.97362992    0.97582105    0.02410000
opls_166-44    C    0.05275997    0.97230997    0.98606053    0.17090000
opls_507-45    C    0.11159007    0.84021999    0.02061053    0.18710000
opls_716-46    C    0.08117007    0.82317002    0.06597105    -0.19630000
opls_716-47    C    0.07430991    0.79407997    0.05331053    -0.19710000
opls_145-48    C    0.06849993    0.89237993    0.78651053    -0.06130000
opls_145-49    C    0.08411994    0.87711996    0.78832105    -0.11290000
opls_145-50    C    0.99953992    0.94523999    0.96902105    -0.19180000
opls_700-51    C    0.99920988    0.97209983    0.97582105    0.02400000
opls_166-52    C    0.27927005    0.69316999    0.03347105    0.17230000
opls_507-53    C    0.23105991    0.87050986    0.08877105    0.21930000
opls_507-54    C    0.22036007    0.82525002    0.06862105    0.18670000
opls_716-55    C    0.25034992    0.84189983    0.15128947    -0.17120000
opls_716-56    C    0.25722990    0.87101996    0.16147105    -0.19630000
opls_145-57    C    0.26468002    0.77410985    0.84068947    -0.06680000
opls_145-58    C    0.24911001    0.78942998    0.83657105    -0.13110000
opls_145-59    C    0.33248991    0.72006987    0.00825000    -0.20820000
opls_700-60    C    0.33274994    0.69316004    0.02005000    0.02120000
opls_145-61    C    0.27852997    0.66617986    0.03575000    -0.20770000
opls_700-62    C    0.30539993    0.66585004    0.02411053    0.02130000
opls_166-63    C    0.02652991    0.94601997    0.96957895    0.17170000
opls_543-64    C    0.20405005    0.89803995    0.00920000    0.21020000
opls_543-65    C    0.15880991    0.88738994    0.98501053    0.18230000
opls_716-66    C    0.17591998    0.91776984    0.93707895    -0.19630000
opls_716-67    C    0.20500002    0.92461996    0.95551053    -0.19710000
opls_145-68    C    0.10645998    0.93071996    0.18900000    -0.05950000
opls_145-69    C    0.12173001    0.91509988    0.19712105    -0.17180000
opls_145-70    C    0.05341996    0.99924989    0.98566053    -0.19180000
opls_142-71    C    0.10275991    0.76949989    0.96232895    -0.21270000
opls_142-72    C    0.22943992    0.89615991    0.05815000    -0.21390000
opls_145-73    C    0.07976002    0.91926985    0.98526053    -0.20960000
opls_700-74    C    0.20468997    0.79418991    0.01666053    -0.06010000
opls_145-75    C    0.25241002    0.74642004    0.02057895    -0.23330000
opls_700-76    C    0.22128996    0.77757992    0.01841053    0.06550000
opls_166-77    C    0.30552999    0.71939983    0.01037895    0.17640000
opls_543-78    C    0.12841002    0.76783996    0.93692105    0.21240000
opls_543-79    C    0.17364000    0.77849992    0.96265000    0.18210000
opls_716-80    C    0.15699992    0.74847992    0.88235000    -0.17120000
opls_716-81    C    0.12789996    0.74161985    0.86862105    -0.19710000
opls_145-82    C    0.22468003    0.73418995    0.19947895    -0.07020000
opls_145-83    C    0.20938997    0.74979986    0.20143947    -0.12340000
opls_507-84    C    0.10088993    0.79494998    0.00000000    0.21940000
opls_700-85    C    0.12750995    0.87150993    0.00000000    -0.08130000
opls_700-86    C    0.11090000    0.88812988    0.00000000    0.06560000
opls_700-87    C    0.02636987    0.99920985    0.97582105    0.02480000
opls_166-88    C    0.02768999    0.08045010    0.98606053    0.17090000
opls_507-89    C    0.15977995    0.27136987    0.02061053    0.18710000
opls_716-90    C    0.17683002    0.25799990    0.06597105    -0.19630000
opls_716-91    C    0.20591992    0.28022987    0.05331053    -0.19710000
opls_145-92    C    0.10761992    0.17611991    0.78651053    -0.06130000
opls_145-93    C    0.12288006    0.20699996    0.78832105    -0.11290000
opls_145-94    C    0.05475991    0.05429990    0.96902105    -0.19620000
opls_700-95    C    0.02790003    0.02711002    0.97582105    0.02400000
opls_166-96    C    0.30683000    0.58609984    0.03347105    0.17230000
opls_507-97    C    0.12948989    0.36054990    0.08877105    0.21930000
opls_507-98    C    0.17475000    0.39510995    0.06862105    0.18670000
opls_716-99    C    0.15809994    0.40845006    0.15128947    -0.17120000
opls_716-100    C    0.12897986    0.38620991    0.16147105    -0.19630000
opls_145-101    C    0.22589001    0.49057006    0.84068947    -0.06680000
opls_145-102    C    0.21057010    0.45968005    0.83657105    -0.13110000
opls_145-103    C    0.27992989    0.61241993    0.00825000    -0.20820000
opls_700-104    C    0.30683997    0.63958990    0.02005000    0.02200000
opls_145-105    C    0.33382003    0.61235003    0.03575000    -0.20770000
opls_700-106    C    0.33415003    0.63954986    0.02411053    0.02130000
opls_166-107    C    0.05397993    0.08051005    0.96957895    0.17170000
opls_543-108    C    0.10195998    0.30600999    0.00920000    0.21020000
opls_543-109    C    0.11261004    0.27142008    0.98501053    0.18230000
opls_716-110    C    0.08222992    0.25814987    0.93707895    -0.19630000
opls_716-111    C    0.07538007    0.28038007    0.95551053    -0.19710000
opls_145-112    C    0.06927990    0.17573988    0.18900000    -0.06220000
opls_145-113    C    0.08490000    0.20662988    0.19712105    -0.17180000
opls_145-114    C    0.00074997    0.05417005    0.98566053    -0.19220000
opls_142-115    C    0.23049994    0.33326004    0.96232895    -0.21230000
opls_142-116    C    0.10383997    0.33327995    0.05815000    -0.21390000
opls_145-117    C    0.08073010    0.16049009    0.98526053    -0.20960000
opls_700-118    C    0.20580996    0.41049999    0.01666053    -0.06010000
opls_145-119    C    0.25358003    0.50598995    0.02057895    -0.23330000
opls_700-120    C    0.22241995    0.44371001    0.01841053    0.06550000
opls_166-121    C    0.28060002    0.58612992    0.01037895    0.17640000
opls_543-122    C    0.23216011    0.36057003    0.93692105    0.21240000
opls_543-123    C    0.22150010    0.39514004    0.96265000    0.18210000
opls_716-124    C    0.25151994    0.40851996    0.88235000    -0.17120000
opls_716-125    C    0.25838006    0.38628004    0.86862105    -0.19710000
opls_145-126    C    0.26580993    0.49048998    0.19947895    -0.07020000
opls_145-127    C    0.25019999    0.45959002    0.20143947    -0.12340000
opls_507-128    C    0.20505001    0.30593987    0.00000000    0.21940000
opls_700-129    C    0.12849002    0.25599996    0.00000000    -0.08130000
opls_700-130    C    0.11187007    0.22277003    0.00000000    0.06560000
opls_700-131    C    0.00078997    0.02716001    0.97582105    0.02480000
opls_542-132    N    0.69904998    0.87621987    0.98608947    -0.33630000
opls_542-133    N    0.63443994    0.79158984    0.03275000    -0.33880000
opls_542-134    N    0.69903994    0.82385996    0.02666053    -0.24340000
opls_542-135    N    0.63443993    0.84394998    0.00000000    -0.24450000
opls_542-136    N    0.12377995    0.82283002    0.98608947    -0.33630000
opls_542-137    N    0.20841002    0.84284992    0.03275000    -0.33880000
opls_542-138    N    0.17613999    0.87517998    0.02666053    -0.24340000
opls_542-139    N    0.15604998    0.79049000    0.00000000    -0.24460000
opls_542-140    N    0.17716996    0.30094988    0.98608947    -0.33630000
opls_542-141    N    0.15714993    0.36556002    0.03275000    -0.33880000
opls_542-142    N    0.12482007    0.30096006    0.02666053    -0.24340000
opls_542-143    N    0.20951009    0.36556002    0.00000000    -0.24450000
opls_167-144    O    0.44211000    0.74512996    0.04852895    -0.35010000
opls_167-145    O    0.89131003    0.96965991    0.95772895    -0.35010000
opls_167-146    O    0.89141986    0.92279987    0.00000000    -0.35010000
opls_167-147    O    0.44205000    0.69820997    0.00000000    -0.35010000
opls_167-148    O    0.25487000    0.69697984    0.04852895    -0.35010000
opls_167-149    O    0.03033985    0.92164981    0.95772895    -0.35010000
opls_167-150    O    0.07720005    0.96862002    0.00000000    -0.35010000
opls_167-151    O    0.30178987    0.74383988    0.00000000    -0.35010000
opls_167-152    O    0.30302008    0.55788998    0.04852895    -0.35010000
opls_167-153    O    0.07835001    0.10869005    0.95772895    -0.35010000
opls_167-154    O    0.03137998    0.10857989    0.00000000    -0.35010000
opls_167-155    O    0.25616002    0.55794992    0.00000000    -0.35010000
MOF2_B_2-156    B    0.87375995    0.93739997    0.98045000    0.57130000
MOF2_B_2-157    B    0.45970986    0.73046991    0.02151053    0.57520000
MOF2_B_2-158    B    0.06259985    0.93635986    0.98045000    0.57130000
MOF2_B_2-159    B    0.26952996    0.72924000    0.02151053    0.57520000
MOF2_B_2-160    B    0.06363990    0.12623995    0.98045000    0.57130000
MOF2_B_2-161    B    0.27075988    0.54028987    0.02151053    0.57520000
opls_547-162    H    0.76462993    0.93485985    0.12758947    0.10030000
opls_547-163    H    0.72225990    0.94737995    0.08952105    0.12080000
opls_547-164    H    0.56879002    0.73372984    0.20538947    0.08740000
opls_547-165    H    0.61129990    0.72135995    0.22023947    0.12080000
opls_146-166    H    0.39046001    0.64862001    0.98665000    0.10800000
opls_146-167    H    0.39041989    0.74320989    0.05782105    0.10800000
opls_146-168    H    0.83644002    0.88548999    0.34026053    0.11420000
opls_146-169    H    0.78223992    0.85944995    0.36985000    0.11490000
opls_144-170    H    0.66673987    0.74983990    0.07392105    0.11980000
opls_146-171    H    0.49757010    0.78429001    0.33860000    0.11580000
opls_146-172    H    0.55179995    0.81071982    0.35033947    0.10800000
opls_146-173    H    0.94278998    0.01936999    0.95363947    0.10800000
opls_146-174    H    0.83571999    0.95153001    0.63088947    0.11350000
opls_146-175    H    0.78140986    0.92337987    0.62112895    0.10110000
opls_146-176    H    0.49742007    0.71437998    0.70240000    0.11350000
opls_146-177    H    0.55161986    0.74209987    0.68706053    0.10800000
opls_547-178    H    0.76447007    0.83077002    0.87442105    0.10270000
opls_547-179    H    0.72186988    0.77558994    0.92787105    0.12080000
opls_146-180    H    0.94294005    0.92480002    0.00200000    0.09620000
opls_144-181    H    0.66678003    0.91798995    0.94706053    0.11520000
opls_547-182    H    0.56860997    0.83600002    0.83406053    0.11780000
opls_547-183    H    0.61140986    0.89117988    0.81378947    0.12150000
opls_545-184    H    0.17069001    0.85489994    0.13131053    0.26950000
opls_545-185    H    0.16050987    0.80979982    0.12511053    0.28180000
opls_547-186    H    0.06513996    0.82975999    0.12758947    0.12250000
opls_547-187    H    0.05262001    0.77487987    0.08952105    0.12080000
opls_547-188    H    0.26626998    0.83505989    0.20538947    0.08740000
opls_547-189    H    0.27863993    0.88994002    0.22023947    0.12080000
opls_146-190    H    0.35137994    0.74183000    0.98665000    0.10800000
opls_146-191    H    0.25679008    0.64721004    0.05782105    0.10800000
opls_146-192    H    0.11451006    0.95095996    0.34026053    0.11490000
opls_146-193    H    0.14054994    0.92278992    0.36985000    0.11490000
opls_144-194    H    0.25015988    0.91689984    0.07392105    0.11980000
opls_146-195    H    0.21570988    0.71327992    0.33860000    0.11580000
opls_146-196    H    0.18927998    0.74107988    0.35033947    0.10800000
opls_146-197    H    0.98062988    0.92342987    0.95363947    0.10800000
opls_146-198    H    0.04846988    0.88418996    0.63088947    0.11350000
opls_146-199    H    0.07661999    0.85803002    0.62112895    0.10110000
opls_146-200    H    0.28561999    0.78303997    0.70240000    0.11350000
opls_146-201    H    0.25790004    0.80952000    0.68706053    0.10800000
opls_547-202    H    0.16923000    0.93369984    0.87442105    0.10270000
opls_547-203    H    0.22440987    0.94627988    0.92787105    0.11800000
opls_146-204    H    0.07520997    0.01813986    0.00200000    0.09620000
opls_144-205    H    0.08200986    0.74877988    0.94706053    0.11620000
opls_547-206    H    0.16399995    0.73260987    0.83406053    0.11780000
opls_547-207    H    0.10881003    0.72023002    0.81378947    0.12080000
opls_545-208    H    0.14509998    0.31579000    0.13131053    0.26950000
opls_545-209    H    0.19020000    0.35070995    0.12511053    0.28180000
opls_547-210    H    0.17023997    0.23537993    0.12758947    0.12250000
opls_547-211    H    0.22511998    0.27773996    0.08952105    0.12080000
opls_547-212    H    0.16494008    0.43121005    0.20538947    0.08740000
opls_547-213    H    0.11005998    0.38870004    0.22023947    0.12080000
opls_146-214    H    0.25817002    0.60954999    0.98665000    0.10800000
opls_146-215    H    0.35278993    0.60957985    0.05782105    0.10800000
opls_146-216    H    0.04904992    0.16356000    0.34026053    0.11420000
opls_146-217    H    0.07721003    0.21775991    0.36985000    0.11490000
opls_144-218    H    0.08309994    0.33326004    0.07392105    0.11980000
opls_146-219    H    0.28671990    0.50242985    0.33860000    0.11580000
opls_146-220    H    0.25891985    0.44819985    0.35033947    0.10800000
opls_146-221    H    0.07657995    0.05721010    0.95363947    0.10800000
opls_146-222    H    0.11580994    0.16428003    0.63088947    0.11350000
opls_146-223    H    0.14197004    0.21858988    0.62112895    0.10110000
opls_146-224    H    0.21695995    0.50258005    0.70240000    0.11350000
opls_146-225    H    0.19047999    0.44837991    0.68706053    0.10800000
opls_547-226    H    0.06630001    0.23552991    0.87442105    0.10270000
opls_547-227    H    0.05371995    0.27813991    0.92787105    0.11820000
opls_146-228    H    0.98186003    0.05705990    0.00200000    0.09620000
opls_144-229    H    0.25121996    0.33322000    0.94706053    0.11780000
opls_547-230    H    0.26738996    0.43138989    0.83406053    0.23020000
opls_547-231    H    0.27977004    0.38858988    0.81378947    0.12150000
opls_545-232    H    0.68420990    0.82930984    0.13131053    0.26950000
opls_545-233    H    0.64929002    0.83949000    0.12511053    0.28180000
