#======================================================================
# Crystal Data Generated By AuToFF
#----------------------------------------------------------------------

data_AuToFF_phase_1

_cell_length_a                         31.0504
_cell_length_b                         32.2630
_cell_length_c                         21.7390
_cell_angle_alpha                      90.00
_cell_angle_beta                       90.00
_cell_angle_gamma                      90.00
_symmetry_space_group_name_H-M_alt     'P 1'
_symmetry_space_group_IT_number        1

loop_
_space_group_symop_operation_xyz
   'x, y, z'

loop_
   _atom_site_label
   _atom_site_type_symbol
   _atom_site_fract_x
   _atom_site_fract_y
   _atom_site_fract_z
   _atom_site_charge
opls_633-0    S    0.97289987    0.22738989    0.94511017    0.06190000
opls_633-1    S    0.69469991    0.23310015    0.54875017    0.06190000
opls_633-2    S    0.52710013    0.77261011    0.94511017    0.06190000
opls_633-3    S    0.80530009    0.76689985    0.54875017    0.06190000
opls_633-4    S    0.52710013    0.72738989    0.55488983    0.06190000
opls_633-5    S    0.80530009    0.73310015    0.95124983    0.06190000
opls_633-6    S    0.97289987    0.27261011    0.55488983    0.06190000
opls_633-7    S    0.69469991    0.26689985    0.95124983    0.06190000
opls_633-8    S    0.02710013    0.77261011    0.05488983    0.06190000
opls_633-9    S    0.30530009    0.76689985    0.45124983    0.06190000
opls_633-10    S    0.47289987    0.22738989    0.05488983    0.06190000
opls_633-11    S    0.19469991    0.23310015    0.45124983    0.06190000
opls_633-12    S    0.47289987    0.27261011    0.44511017    0.06190000
opls_633-13    S    0.19469991    0.26689985    0.04875017    0.06190000
opls_633-14    S    0.02710013    0.72738989    0.44511017    0.06190000
opls_633-15    S    0.30530009    0.73310015    0.04875017    0.06190000
opls_700-16    C    0.85952999    0.21955987    0.78672018    0.03340000
opls_716-17    C    0.75306985    0.19679013    0.64074014    0.01450000
opls_700-18    C    0.80512006    0.22011995    0.71063986    0.02990000
opls_567-19    C    0.94707991    0.19289000    0.90211003    -0.03650000
opls_145-20    C    0.89067001    0.22821994    0.82981002    -0.15480000
opls_716-21    C    0.81409998    0.17939001    0.72365978    0.02580000
opls_700-22    C    0.84937006    0.17871990    0.77109987    0.02410000
opls_145-23    C    0.87096012    0.14415987    0.79741018    -0.14970000
opls_145-24    C    0.79286998    0.14651985    0.69879019    -0.14970000
opls_567-25    C    0.72016013    0.19759012    0.59152997    -0.03680000
opls_145-26    C    0.77434011    0.23114001    0.66783983    -0.14970000
opls_700-27    C    0.70669009    0.15673000    0.58155987    0.03960000
opls_700-28    C    0.91179985    0.19375012    0.85389990    0.03150000
opls_700-29    C    0.90344988    0.15334005    0.83898983    0.00470000
opls_700-30    C    0.95793001    0.15193007    0.91073002    0.03890000
opls_701-31    C    0.73167012    0.12590987    0.62044022    0.01290000
opls_701-32    C    0.93226013    0.12239004    0.87119003    0.01220000
opls_280-33    C    0.63028013    0.27537985    0.44116013    0.27290000
opls_145-34    C    0.70014009    0.10348015    0.66303004    0.03340000
opls_567-35    C    0.66474989    0.19479993    0.51369980    0.02460000
opls_567-36    C    0.00330012    0.18791991    0.97682000    0.01570000
opls_716-37    C    0.76110002    0.15641013    0.65393992    0.03440000
opls_145-38    C    0.54876008    0.28969005    0.32155987    -0.22850000
opls_716-39    C    0.57836002    0.23148994    0.39434013    -0.00320000
opls_280-40    C    0.03993990    0.26637015    0.05098993    0.25870000
opls_716-41    C    0.61410996    0.23198990    0.43849993    -0.02910000
opls_716-42    C    0.99180011    0.15023990    0.95502001    -0.19710000
opls_716-43    C    0.05445985    0.22367015    0.05202999    -0.02780000
opls_145-44    C    0.55375003    0.33216998    0.30790009    -0.16470000
opls_700-45    C    0.75874997    0.09612993    0.58097981    0.04610000
opls_716-46    C    0.67388987    0.15532994    0.53553015    -0.19520000
opls_145-47    C    0.66895016    0.08924991    0.76178987    -0.22850000
opls_700-48    C    0.09010995    0.22220996    0.09740006    -0.03350000
opls_716-49    C    0.06351995    0.29031987    0.09736004    0.02040000
opls_141-50    C    0.55084991    0.19977002    0.38165003    -0.09220000
opls_700-51    C    0.57516006    0.27297988    0.36826993    0.00000000
opls_700-52    C    0.96261014    0.09886991    0.82764019    0.05220000
opls_145-53    C    0.05947009    0.33083005    0.11365012    -0.23520000
opls_145-54    C    0.12067993    0.27841986    0.17108009    -0.23520000
opls_145-55    C    0.67151985    0.07384992    0.63522011    -0.22880000
opls_145-56    C    0.77190986    0.10676998    0.52020010    -0.22790000
opls_145-57    C    0.90428014    0.09281995    0.91159989    0.03630000
opls_423-58    C    0.55499994    0.16007005    0.40580983    0.14260000
opls_145-59    C    0.58493997    0.35718997    0.33523989    -0.17790000
opls_142-60    C    0.63028013    0.19854012    0.46811997    -0.19510000
opls_145-61    C    0.69701002    0.10964015    0.72446985    -0.24260000
opls_145-62    C    0.61004013    0.34088987    0.38158011    -0.23730000
opls_142-63    C    0.03789001    0.19014010    0.02220019    -0.19550000
opls_145-64    C    0.89142008    0.05486997    0.89050002    -0.24190000
opls_700-65    C    0.60596997    0.29908998    0.39477023    -0.00530000
opls_145-66    C    0.89074988    0.10386015    0.96977000    -0.23970000
opls_423-67    C    0.51455988    0.20282987    0.34269010    0.18770000
opls_700-68    C    0.09341007    0.26333013    0.12534983    0.00020000
opls_423-69    C    0.15416001    0.19403992    0.14936014    0.19470000
opls_145-70    C    0.02273014    0.05702012    0.75179999    0.07920000
opls_141-71    C    0.11885000    0.19057992    0.10633010    -0.09220000
opls_145-72    C    0.63963009    0.05930013    0.73350016    0.10460000
opls_145-73    C    0.79866990    0.03206986    0.56990018    -0.23730000
opls_145-74    C    0.81120984    0.04155999    0.51300014    0.08260000
opls_145-75    C    0.96503008    0.10726002    0.76561985    -0.23520000
opls_145-76    C    0.99115986    0.06843009    0.85419983    -0.22830000
opls_423-77    C    0.11648996    0.15304001    0.07929988    0.14270000
opls_145-78    C    0.01903003    0.04833989    0.81120015    -0.23770000
opls_145-79    C    0.64260010    0.05258996    0.67212015    -0.24140000
opls_145-80    C    0.79923995    0.08053994    0.48840011    -0.22790000
opls_145-81    C    0.86429998    0.02987013    0.92380008    -0.23520000
opls_145-82    C    0.86528000    0.07919009    0.00530015    -0.23520000
opls_145-83    C    0.99482003    0.08646995    0.72710014    -0.22790000
opls_145-84    C    0.77221002    0.05837988    0.60667004    -0.22830000
opls_700-85    C    0.85159998    0.03957010    0.98480013    0.07900000
opls_145-86    C    0.11551993    0.31976010    0.18649984    -0.17800000
opls_145-87    C    0.08758985    0.34748009    0.15870003    -0.16480000
opls_136-88    C    0.81179985    0.97783994    0.44510005    -0.26030000
opls_149-89    C    0.60693002    0.03801010    0.77640002    -0.29460000
opls_149-90    C    0.05694001    0.03626011    0.71050002    -0.29470000
opls_149-91    C    0.83857986    0.01189009    0.47560007    -0.29650000
opls_136-92    C    0.85290012    0.98120014    0.06189981    -0.26170000
opls_149-93    C    0.82579999    0.01149986    0.02330006    -0.30750000
opls_136-94    C    0.81059986    0.91280011    0.37909977    -0.26680000
opls_136-95    C    0.83739984    0.94673000    0.40599982    -0.26320000
opls_136-96    C    0.56686001    0.06760004    0.79109987    -0.26180000
opls_136-97    C    0.53969997    0.04959985    0.84380008    -0.26170000
opls_136-98    C    0.99749987    0.95250008    0.61549979    -0.26170000
opls_136-99    C    0.03929998    0.99259988    0.69549979    -0.26260000
opls_136-100    C    0.00910004    0.99559991    0.64109987    -0.26270000
opls_136-101    C    0.80630008    0.93490004    0.10059984    -0.25990000
opls_136-102    C    0.81800009    0.97980008    0.11280004    -0.26040000
opls_136-103    C    0.83470004    0.88319995    0.33580017    -0.24660000
opls_135-104    C    0.48050009    0.03380002    0.96129997    -0.41940000
opls_136-105    C    0.47619998    0.06719989    0.91209991    -0.24560000
opls_135-106    C    0.93860015    0.93900009    0.53450021    -0.41830000
opls_136-107    C    0.96469997    0.97120014    0.56959980    -0.24550000
opls_135-108    C    0.75850005    0.88019992    0.13610010    -0.41940000
opls_136-109    C    0.79360008    0.90980008    0.15890013    -0.24650000
opls_136-110    C    0.50679991    0.08499985    0.86179999    -0.26030000
opls_135-111    C    0.80530009    0.85809999    0.29129997    -0.41670000
opls_701-112    C    0.83198993    0.25000000    0.75000000    0.01220000
opls_700-113    C    0.64047001    0.78044013    0.78672018    0.03340000
opls_716-114    C    0.74693015    0.80320987    0.64074014    0.01450000
opls_700-115    C    0.69487994    0.77988005    0.71063986    0.02990000
opls_567-116    C    0.55292009    0.80711000    0.90211003    -0.03650000
opls_145-117    C    0.60932999    0.77178006    0.82981002    -0.15490000
opls_716-118    C    0.68590002    0.82060999    0.72365978    0.02580000
opls_700-119    C    0.65062994    0.82128010    0.77109987    0.02410000
opls_145-120    C    0.62903988    0.85584013    0.79741018    -0.14970000
opls_145-121    C    0.70713002    0.85348015    0.69879019    -0.14960000
opls_567-122    C    0.77983987    0.80240988    0.59152997    -0.03680000
opls_145-123    C    0.72565989    0.76885999    0.66783983    -0.14970000
opls_700-124    C    0.79330991    0.84327000    0.58155987    0.03960000
opls_700-125    C    0.58820015    0.80624988    0.85389990    0.03150000
opls_700-126    C    0.59655012    0.84665995    0.83898983    0.00470000
opls_700-127    C    0.54206999    0.84806993    0.91073002    0.03890000
opls_701-128    C    0.76832988    0.87409013    0.62044022    0.01290000
opls_701-129    C    0.56773987    0.87760996    0.87119003    0.01220000
opls_280-130    C    0.86971987    0.72462015    0.44116013    0.27300000
opls_145-131    C    0.79985991    0.89651985    0.66303004    0.03340000
opls_567-132    C    0.83525011    0.80520007    0.51369980    0.02460000
opls_567-133    C    0.49669988    0.81208009    0.97682000    0.01570000
opls_716-134    C    0.73889998    0.84358987    0.65393992    0.03440000
opls_145-135    C    0.95123992    0.71030995    0.32155987    -0.22840000
opls_716-136    C    0.92163998    0.76851006    0.39434013    -0.00320000
opls_280-137    C    0.46006010    0.73362985    0.05098993    0.25870000
opls_716-138    C    0.88589004    0.76801010    0.43849993    -0.02910000
opls_716-139    C    0.50819989    0.84976010    0.95502001    -0.19710000
opls_716-140    C    0.44554015    0.77632985    0.05202999    -0.02780000
opls_145-141    C    0.94624997    0.66783002    0.30790009    -0.16480000
opls_700-142    C    0.74125003    0.90387007    0.58097981    0.04610000
opls_716-143    C    0.82611013    0.84467006    0.53553015    -0.19520000
opls_145-144    C    0.83104984    0.91075009    0.76178987    -0.22850000
opls_700-145    C    0.40989005    0.77779004    0.09740006    -0.03350000
opls_716-146    C    0.43648005    0.70968013    0.09736004    0.02040000
opls_141-147    C    0.94915009    0.80022998    0.38165003    -0.09220000
opls_700-148    C    0.92483994    0.72702012    0.36826993    0.00000000
opls_700-149    C    0.53738986    0.90113009    0.82764019    0.05220000
opls_145-150    C    0.44052991    0.66916995    0.11365012    -0.23520000
opls_145-151    C    0.37932007    0.72158014    0.17108009    -0.23520000
opls_145-152    C    0.82848015    0.92615008    0.63522011    -0.22880000
opls_145-153    C    0.72809014    0.89323002    0.52020010    -0.22790000
opls_145-154    C    0.59571986    0.90718005    0.91159989    0.03630000
opls_423-155    C    0.94500006    0.83992995    0.40580983    0.14240000
opls_145-156    C    0.91506003    0.64281003    0.33523989    -0.17800000
opls_142-157    C    0.86971987    0.80145988    0.46811997    -0.19530000
opls_145-158    C    0.80298998    0.89035985    0.72446985    -0.24270000
opls_145-159    C    0.88995987    0.65911013    0.38158011    -0.23730000
opls_142-160    C    0.46210999    0.80985990    0.02220019    -0.19550000
opls_145-161    C    0.60857992    0.94513003    0.89050002    -0.24190000
opls_700-162    C    0.89403003    0.70091002    0.39477023    -0.00530000
opls_145-163    C    0.60925012    0.89613985    0.96977000    -0.23980000
opls_423-164    C    0.98544012    0.79717013    0.34269010    0.18780000
opls_700-165    C    0.40658993    0.73666987    0.12534983    0.00020000
opls_423-166    C    0.34583999    0.80596008    0.14936014    0.19460000
opls_145-167    C    0.47726986    0.94297988    0.75179999    0.07920000
opls_141-168    C    0.38115000    0.80942008    0.10633010    -0.09220000
opls_145-169    C    0.86036991    0.94069987    0.73350016    0.10460000
opls_145-170    C    0.70133010    0.96793014    0.56990018    -0.23730000
opls_145-171    C    0.68879016    0.95844001    0.51300014    0.08260000
opls_145-172    C    0.53496992    0.89273998    0.76561985    -0.23520000
opls_145-173    C    0.50884014    0.93156991    0.85419983    -0.22830000
opls_423-174    C    0.38351004    0.84695999    0.07929988    0.14270000
opls_145-175    C    0.48096997    0.95166011    0.81120015    -0.23770000
opls_145-176    C    0.85739990    0.94741004    0.67212015    -0.24140000
opls_145-177    C    0.70076005    0.91946006    0.48840011    -0.22790000
opls_145-178    C    0.63570002    0.97012987    0.92380008    -0.23520000
opls_145-179    C    0.63472000    0.92080991    0.00530015    -0.23510000
opls_145-180    C    0.50517997    0.91353005    0.72710014    -0.22780000
opls_145-181    C    0.72778998    0.94162012    0.60667004    -0.22830000
opls_700-182    C    0.64840002    0.96042990    0.98480013    0.07900000
opls_145-183    C    0.38448007    0.68023990    0.18649984    -0.17800000
opls_145-184    C    0.41241015    0.65251991    0.15870003    -0.16470000
opls_136-185    C    0.68820015    0.02216006    0.44510005    -0.26040000
opls_149-186    C    0.89306998    0.96198990    0.77640002    -0.29450000
opls_149-187    C    0.44305999    0.96373989    0.71050002    -0.29470000
opls_149-188    C    0.66142014    0.98810991    0.47560007    -0.29650000
opls_136-189    C    0.64709988    0.01879986    0.06189981    -0.26170000
opls_149-190    C    0.67420001    0.98850014    0.02330006    -0.30750000
opls_136-191    C    0.68940014    0.08719989    0.37909977    -0.26680000
opls_136-192    C    0.66260016    0.05327000    0.40599982    -0.26320000
opls_136-193    C    0.93313999    0.93239996    0.79109987    -0.26180000
opls_136-194    C    0.96030003    0.95040015    0.84380008    -0.26160000
opls_136-195    C    0.50250013    0.04749992    0.61549979    -0.26170000
opls_136-196    C    0.46070002    0.00740012    0.69549979    -0.26260000
opls_136-197    C    0.49089996    0.00440009    0.64109987    -0.26270000
opls_136-198    C    0.69369992    0.06509996    0.10059984    -0.25990000
opls_136-199    C    0.68199991    0.02019992    0.11280004    -0.26040000
opls_136-200    C    0.66529996    0.11680005    0.33580017    -0.24670000
opls_135-201    C    0.01949991    0.96619998    0.96129997    -0.41930000
opls_136-202    C    0.02380002    0.93280011    0.91209991    -0.24550000
opls_135-203    C    0.56139985    0.06099991    0.53450021    -0.41830000
opls_136-204    C    0.53530003    0.02879986    0.56959980    -0.24550000
opls_135-205    C    0.74149995    0.11980008    0.13610010    -0.41950000
opls_136-206    C    0.70639992    0.09019992    0.15890013    -0.24640000
opls_136-207    C    0.99320009    0.91499985    0.86179999    -0.26030000
opls_135-208    C    0.69469991    0.14190001    0.29129997    -0.41680000
opls_701-209    C    0.66801007    0.75000000    0.75000000    0.01220000
opls_700-210    C    0.64047001    0.71955987    0.71327982    0.03340000
opls_716-211    C    0.74693015    0.69679013    0.85925986    0.01450000
opls_700-212    C    0.69487994    0.72011995    0.78936014    0.02990000
opls_567-213    C    0.55292009    0.69289000    0.59788997    -0.03650000
opls_145-214    C    0.60932999    0.72821994    0.67018998    -0.15490000
opls_716-215    C    0.68590002    0.67939001    0.77634022    0.02580000
opls_700-216    C    0.65062994    0.67871990    0.72890013    0.02410000
opls_145-217    C    0.62903988    0.64415987    0.70258982    -0.14970000
opls_145-218    C    0.70713002    0.64651985    0.80120981    -0.14960000
opls_567-219    C    0.77983987    0.69759012    0.90847003    -0.03680000
opls_145-220    C    0.72565989    0.73114001    0.83216017    -0.14970000
opls_700-221    C    0.79330991    0.65673000    0.91844013    0.03960000
opls_700-222    C    0.58820015    0.69375012    0.64610010    0.03150000
opls_700-223    C    0.59655012    0.65334005    0.66101017    0.00470000
opls_700-224    C    0.54206999    0.65193007    0.58926998    0.03890000
opls_701-225    C    0.76832988    0.62590987    0.87955978    0.01290000
opls_701-226    C    0.56773987    0.62239004    0.62880997    0.01220000
opls_280-227    C    0.86971987    0.77537985    0.05883987    0.27290000
opls_145-228    C    0.79985991    0.60348015    0.83696996    0.03340000
opls_567-229    C    0.83525011    0.69479993    0.98630020    0.02460000
opls_567-230    C    0.49669988    0.68791991    0.52318000    0.01580000
opls_716-231    C    0.73889998    0.65641013    0.84606008    0.03440000
opls_145-232    C    0.95123992    0.78969005    0.17844013    -0.22850000
opls_716-233    C    0.92163998    0.73148994    0.10565987    -0.00320000
opls_280-234    C    0.46006010    0.76637015    0.44901007    0.25870000
opls_716-235    C    0.88589004    0.73198990    0.06150007    -0.02910000
opls_716-236    C    0.50819989    0.65023990    0.54497999    -0.19710000
opls_716-237    C    0.44554015    0.72367015    0.44797001    -0.02780000
opls_145-238    C    0.94624997    0.83216998    0.19209991    -0.16480000
opls_700-239    C    0.74125003    0.59612993    0.91902019    0.04620000
opls_716-240    C    0.82611013    0.65532994    0.96446985    -0.19520000
opls_145-241    C    0.83104984    0.58924991    0.73821013    -0.22850000
opls_700-242    C    0.40989005    0.72220996    0.40259994    -0.03350000
opls_716-243    C    0.43648005    0.79031987    0.40263996    0.02040000
opls_141-244    C    0.94915009    0.69977002    0.11834997    -0.09220000
opls_700-245    C    0.92483994    0.77297988    0.13173007    0.00000000
opls_700-246    C    0.53738986    0.59886991    0.67235981    0.05220000
opls_145-247    C    0.44052991    0.83083005    0.38634988    -0.23510000
opls_145-248    C    0.37932007    0.77841986    0.32891991    -0.23520000
opls_145-249    C    0.82848015    0.57384992    0.86477989    -0.22880000
opls_145-250    C    0.72809014    0.60676998    0.97979990    -0.22790000
opls_145-251    C    0.59571986    0.59281995    0.58840011    0.03630000
opls_423-252    C    0.94500006    0.66007005    0.09419017    0.14240000
opls_145-253    C    0.91506003    0.85718997    0.16476011    -0.17800000
opls_142-254    C    0.86971987    0.69854012    0.03188003    -0.19520000
opls_145-255    C    0.80298998    0.60964015    0.77553015    -0.24270000
opls_145-256    C    0.88995987    0.84088987    0.11841989    -0.23730000
opls_142-257    C    0.46210999    0.69014010    0.47779981    -0.19550000
opls_145-258    C    0.60857992    0.55486997    0.60949998    -0.24190000
opls_700-259    C    0.89403003    0.79908998    0.10522977    -0.00530000
opls_145-260    C    0.60925012    0.60386015    0.53023000    -0.23980000
opls_423-261    C    0.98544012    0.70282987    0.15730990    0.18770000
opls_700-262    C    0.40658993    0.76333013    0.37465017    0.00020000
opls_423-263    C    0.34583999    0.69403992    0.35063986    0.19470000
opls_145-264    C    0.47726986    0.55702012    0.74820001    0.07920000
opls_141-265    C    0.38115000    0.69057992    0.39366990    -0.09220000
opls_145-266    C    0.86036991    0.55930013    0.76649984    0.10460000
opls_145-267    C    0.70133010    0.53206986    0.93009982    -0.23730000
opls_145-268    C    0.68879016    0.54155999    0.98699986    0.08260000
opls_145-269    C    0.53496992    0.60726002    0.73438015    -0.23520000
opls_145-270    C    0.50884014    0.56843009    0.64580017    -0.22830000
opls_423-271    C    0.38351004    0.65304001    0.42070012    0.14270000
opls_145-272    C    0.48096997    0.54833989    0.68879985    -0.23770000
opls_145-273    C    0.85739990    0.55258996    0.82787985    -0.24150000
opls_145-274    C    0.70076005    0.58053994    0.01159989    -0.22790000
opls_145-275    C    0.63570002    0.52987013    0.57619992    -0.23520000
opls_145-276    C    0.63472000    0.57919009    0.49469985    -0.23520000
opls_145-277    C    0.50517997    0.58646995    0.77289986    -0.22780000
opls_145-278    C    0.72778998    0.55837988    0.89332996    -0.22830000
opls_700-279    C    0.64840002    0.53957010    0.51519987    0.07900000
opls_145-280    C    0.38448007    0.81976010    0.31350016    -0.17800000
opls_145-281    C    0.41241015    0.84748009    0.34129997    -0.16470000
opls_136-282    C    0.68820015    0.47783994    0.05489995    -0.26030000
opls_149-283    C    0.89306998    0.53801010    0.72359998    -0.29460000
opls_149-284    C    0.44305999    0.53626011    0.78949998    -0.29460000
opls_149-285    C    0.66142014    0.51189009    0.02439993    -0.29650000
opls_136-286    C    0.64709988    0.48120014    0.43810019    -0.26170000
opls_149-287    C    0.67420001    0.51149986    0.47669994    -0.30750000
opls_136-288    C    0.68940014    0.41280011    0.12090023    -0.26680000
opls_136-289    C    0.66260016    0.44673000    0.09400018    -0.26320000
opls_136-290    C    0.93313999    0.56760004    0.70890013    -0.26180000
opls_136-291    C    0.96030003    0.54959985    0.65619992    -0.26160000
opls_136-292    C    0.50250013    0.45250008    0.88450021    -0.26170000
opls_136-293    C    0.46070002    0.49259988    0.80450021    -0.26260000
opls_136-294    C    0.49089996    0.49559991    0.85890013    -0.26270000
opls_136-295    C    0.69369992    0.43490004    0.39940016    -0.25990000
opls_136-296    C    0.68199991    0.47980008    0.38719996    -0.26040000
opls_136-297    C    0.66529996    0.38319995    0.16419983    -0.24670000
opls_135-298    C    0.01949991    0.53380002    0.53870003    -0.41930000
opls_136-299    C    0.02380002    0.56719989    0.58790009    -0.24560000
opls_135-300    C    0.56139985    0.43900009    0.96549979    -0.41840000
opls_136-301    C    0.53530003    0.47120014    0.93040020    -0.24540000
opls_135-302    C    0.74149995    0.38019992    0.36389990    -0.41950000
opls_136-303    C    0.70639992    0.40980008    0.34109987    -0.24640000
opls_136-304    C    0.99320009    0.58499985    0.63820001    -0.26020000
opls_135-305    C    0.69469991    0.35809999    0.20870003    -0.41680000
opls_700-306    C    0.85952999    0.28044013    0.71327982    0.03340000
opls_716-307    C    0.75306985    0.30320987    0.85925986    0.01450000
opls_700-308    C    0.80512006    0.27988005    0.78936014    0.02990000
opls_567-309    C    0.94707991    0.30711000    0.59788997    -0.03650000
opls_145-310    C    0.89067001    0.27178006    0.67018998    -0.15490000
opls_716-311    C    0.81409998    0.32060999    0.77634022    0.02580000
opls_700-312    C    0.84937006    0.32128010    0.72890013    0.02410000
opls_145-313    C    0.87096012    0.35584013    0.70258982    -0.14970000
opls_145-314    C    0.79286998    0.35348015    0.80120981    -0.14970000
opls_567-315    C    0.72016013    0.30240988    0.90847003    -0.03680000
opls_145-316    C    0.77434011    0.26885999    0.83216017    -0.14970000
opls_700-317    C    0.70669009    0.34327000    0.91844013    0.03960000
opls_700-318    C    0.91179985    0.30624988    0.64610010    0.03150000
opls_700-319    C    0.90344988    0.34665995    0.66101017    0.00470000
opls_700-320    C    0.95793001    0.34806993    0.58926998    0.03890000
opls_701-321    C    0.73167012    0.37409013    0.87955978    0.01290000
opls_701-322    C    0.93226013    0.37760996    0.62880997    0.01220000
opls_280-323    C    0.63028013    0.22462015    0.05883987    0.27290000
opls_145-324    C    0.70014009    0.39651985    0.83696996    0.03340000
opls_567-325    C    0.66474989    0.30520007    0.98630020    0.02460000
opls_567-326    C    0.00330012    0.31208009    0.52318000    0.01570000
opls_716-327    C    0.76110002    0.34358987    0.84606008    0.03440000
opls_145-328    C    0.54876008    0.21030995    0.17844013    -0.22850000
opls_716-329    C    0.57836002    0.26851006    0.10565987    -0.00320000
opls_280-330    C    0.03993990    0.23362985    0.44901007    0.25870000
opls_716-331    C    0.61410996    0.26801010    0.06150007    -0.02910000
opls_716-332    C    0.99180011    0.34976010    0.54497999    -0.19710000
opls_716-333    C    0.05445985    0.27632985    0.44797001    -0.02780000
opls_145-334    C    0.55375003    0.16783002    0.19209991    -0.16470000
opls_700-335    C    0.75874997    0.40387007    0.91902019    0.04610000
opls_716-336    C    0.67388987    0.34467006    0.96446985    -0.19520000
opls_145-337    C    0.66895016    0.41075009    0.73821013    -0.22850000
opls_700-338    C    0.09010995    0.27779004    0.40259994    -0.03350000
opls_716-339    C    0.06351995    0.20968013    0.40263996    0.02040000
opls_141-340    C    0.55084991    0.30022998    0.11834997    -0.09220000
opls_700-341    C    0.57516006    0.22702012    0.13173007    0.00000000
opls_700-342    C    0.96261014    0.40113009    0.67235981    0.05220000
opls_145-343    C    0.05947009    0.16916995    0.38634988    -0.23510000
opls_145-344    C    0.12067993    0.22158014    0.32891991    -0.23520000
opls_145-345    C    0.67151985    0.42615008    0.86477989    -0.22880000
opls_145-346    C    0.77190986    0.39323002    0.97979990    -0.22790000
opls_145-347    C    0.90428014    0.40718005    0.58840011    0.03630000
opls_423-348    C    0.55499994    0.33992995    0.09419017    0.14240000
opls_145-349    C    0.58493997    0.14281003    0.16476011    -0.17800000
opls_142-350    C    0.63028013    0.30145988    0.03188003    -0.19530000
opls_145-351    C    0.69701002    0.39035985    0.77553015    -0.24270000
opls_145-352    C    0.61004013    0.15911013    0.11841989    -0.23730000
opls_142-353    C    0.03789001    0.30985990    0.47779981    -0.19540000
opls_145-354    C    0.89142008    0.44513003    0.60949998    -0.24190000
opls_700-355    C    0.60596997    0.20091002    0.10522977    -0.00530000
opls_145-356    C    0.89074988    0.39613985    0.53023000    -0.23970000
opls_423-357    C    0.51455988    0.29717013    0.15730990    0.18780000
opls_700-358    C    0.09341007    0.23666987    0.37465017    0.00020000
opls_423-359    C    0.15416001    0.30596008    0.35063986    0.19470000
opls_145-360    C    0.02273014    0.44297988    0.74820001    0.07920000
opls_141-361    C    0.11885000    0.30942008    0.39366990    -0.09220000
opls_145-362    C    0.63963009    0.44069987    0.76649984    0.10460000
opls_145-363    C    0.79866990    0.46793014    0.93009982    -0.23730000
opls_145-364    C    0.81120984    0.45844001    0.98699986    0.08260000
opls_145-365    C    0.96503008    0.39273998    0.73438015    -0.23510000
opls_145-366    C    0.99115986    0.43156991    0.64580017    -0.22830000
opls_423-367    C    0.11648996    0.34695999    0.42070012    0.14280000
opls_145-368    C    0.01903003    0.45166011    0.68879985    -0.23770000
opls_145-369    C    0.64260010    0.44741004    0.82787985    -0.24140000
opls_145-370    C    0.79923995    0.41946006    0.01159989    -0.22790000
opls_145-371    C    0.86429998    0.47012987    0.57619992    -0.23520000
opls_145-372    C    0.86528000    0.42080991    0.49469985    -0.23520000
opls_145-373    C    0.99482003    0.41353005    0.77289986    -0.22790000
opls_145-374    C    0.77221002    0.44162012    0.89332996    -0.22830000
opls_700-375    C    0.85159998    0.46042990    0.51519987    0.07900000
opls_145-376    C    0.11551993    0.18023990    0.31350016    -0.17800000
opls_145-377    C    0.08758985    0.15251991    0.34129997    -0.16470000
opls_136-378    C    0.81179985    0.52216006    0.05489995    -0.26030000
opls_149-379    C    0.60693002    0.46198990    0.72359998    -0.29460000
opls_149-380    C    0.05694001    0.46373989    0.78949998    -0.29470000
opls_149-381    C    0.83857986    0.48810991    0.02439993    -0.29640000
opls_136-382    C    0.85290012    0.51879986    0.43810019    -0.26170000
opls_149-383    C    0.82579999    0.48850014    0.47669994    -0.30750000
opls_136-384    C    0.81059986    0.58719989    0.12090023    -0.26680000
opls_136-385    C    0.83739984    0.55327000    0.09400018    -0.26320000
opls_136-386    C    0.56686001    0.43239996    0.70890013    -0.26180000
opls_136-387    C    0.53969997    0.45040015    0.65619992    -0.26170000
opls_136-388    C    0.99749987    0.54749992    0.88450021    -0.26170000
opls_136-389    C    0.03929998    0.50740012    0.80450021    -0.26260000
opls_136-390    C    0.00910004    0.50440009    0.85890013    -0.26270000
opls_136-391    C    0.80630008    0.56509996    0.39940016    -0.25980000
opls_136-392    C    0.81800009    0.52019992    0.38719996    -0.26040000
opls_136-393    C    0.83470004    0.61680005    0.16419983    -0.24670000
opls_135-394    C    0.48050009    0.46619998    0.53870003    -0.41940000
opls_136-395    C    0.47619998    0.43280011    0.58790009    -0.24560000
opls_135-396    C    0.93860015    0.56099991    0.96549979    -0.41840000
opls_136-397    C    0.96469997    0.52879986    0.93040020    -0.24540000
opls_135-398    C    0.75850005    0.61980008    0.36389990    -0.41950000
opls_136-399    C    0.79360008    0.59019992    0.34109987    -0.24650000
opls_136-400    C    0.50679991    0.41499985    0.63820001    -0.26030000
opls_135-401    C    0.80530009    0.64190001    0.20870003    -0.41670000
opls_700-402    C    0.14047001    0.78044013    0.21327982    0.03340000
opls_716-403    C    0.24693015    0.80320987    0.35925986    0.01450000
opls_700-404    C    0.19487994    0.77988005    0.28936014    0.02990000
opls_567-405    C    0.05292009    0.80711000    0.09788997    -0.03650000
opls_145-406    C    0.10932999    0.77178006    0.17018998    -0.15490000
opls_716-407    C    0.18590002    0.82060999    0.27634022    0.02580000
opls_700-408    C    0.15062994    0.82128010    0.22890013    0.02410000
opls_145-409    C    0.12903988    0.85584013    0.20258982    -0.14970000
opls_145-410    C    0.20713002    0.85348015    0.30120981    -0.14970000
opls_567-411    C    0.27983987    0.80240988    0.40847003    -0.03680000
opls_145-412    C    0.22565989    0.76885999    0.33216017    -0.14970000
opls_700-413    C    0.29330991    0.84327000    0.41844013    0.03960000
opls_700-414    C    0.08820015    0.80624988    0.14610010    0.03160000
opls_700-415    C    0.09655012    0.84665995    0.16101017    0.00470000
opls_700-416    C    0.04206999    0.84806993    0.08926998    0.03890000
opls_701-417    C    0.26832988    0.87409013    0.37955978    0.01290000
opls_701-418    C    0.06773987    0.87760996    0.12880997    0.01220000
opls_280-419    C    0.36971987    0.72462015    0.55883987    0.27310000
opls_145-420    C    0.29985991    0.89651985    0.33696996    0.03340000
opls_567-421    C    0.33525011    0.80520007    0.48630020    0.02460000
opls_567-422    C    0.99669988    0.81208009    0.02318000    0.01570000
opls_716-423    C    0.23889998    0.84358987    0.34606008    0.03440000
opls_145-424    C    0.45123992    0.71030995    0.67844013    -0.22850000
opls_716-425    C    0.42163998    0.76851006    0.60565987    -0.00320000
opls_280-426    C    0.96006010    0.73362985    0.94901007    0.25870000
opls_716-427    C    0.38589004    0.76801010    0.56150007    -0.02910000
opls_716-428    C    0.00819989    0.84976010    0.04497999    -0.19710000
opls_716-429    C    0.94554015    0.77632985    0.94797001    -0.02780000
opls_145-430    C    0.44624997    0.66783002    0.69209991    -0.16480000
opls_700-431    C    0.24125003    0.90387007    0.41902019    0.04610000
opls_716-432    C    0.32611013    0.84467006    0.46446985    -0.19520000
opls_145-433    C    0.33104984    0.91075009    0.23821013    -0.22850000
opls_700-434    C    0.90989005    0.77779004    0.90259994    -0.03350000
opls_716-435    C    0.93648005    0.70968013    0.90263996    0.02040000
opls_141-436    C    0.44915009    0.80022998    0.61834997    -0.09220000
opls_700-437    C    0.42483994    0.72702012    0.63173007    0.00000000
opls_700-438    C    0.03738986    0.90113009    0.17235981    0.05220000
opls_145-439    C    0.94052991    0.66916995    0.88634988    -0.23520000
opls_145-440    C    0.87932007    0.72158014    0.82891991    -0.23520000
opls_145-441    C    0.32848015    0.92615008    0.36477989    -0.22870000
opls_145-442    C    0.22809014    0.89323002    0.47979990    -0.22780000
opls_145-443    C    0.09571986    0.90718005    0.08840011    0.03630000
opls_423-444    C    0.44500006    0.83992995    0.59419017    0.14240000
opls_145-445    C    0.41506003    0.64281003    0.66476011    -0.17790000
opls_142-446    C    0.36971987    0.80145988    0.53188003    -0.19530000
opls_145-447    C    0.30298998    0.89035985    0.27553015    -0.24270000
opls_145-448    C    0.38995987    0.65911013    0.61841989    -0.23730000
opls_142-449    C    0.96210999    0.80985990    0.97779981    -0.19550000
opls_145-450    C    0.10857992    0.94513003    0.10949998    -0.24180000
opls_700-451    C    0.39403003    0.70091002    0.60522977    -0.00530000
opls_145-452    C    0.10925012    0.89613985    0.03023000    -0.23980000
opls_423-453    C    0.48544012    0.79717013    0.65730990    0.18770000
opls_700-454    C    0.90658993    0.73666987    0.87465017    0.00020000
opls_423-455    C    0.84583999    0.80596008    0.85063986    0.19460000
opls_145-456    C    0.97726986    0.94297988    0.24820001    0.07920000
opls_141-457    C    0.88115000    0.80942008    0.89366990    -0.09220000
opls_145-458    C    0.36036991    0.94069987    0.26649984    0.10470000
opls_145-459    C    0.20133010    0.96793014    0.43009982    -0.23730000
opls_145-460    C    0.18879016    0.95844001    0.48699986    0.08260000
opls_145-461    C    0.03496992    0.89273998    0.23438015    -0.23520000
opls_145-462    C    0.00884014    0.93156991    0.14580017    -0.22830000
opls_423-463    C    0.88351004    0.84695999    0.92070012    0.14270000
opls_145-464    C    0.98096997    0.95166011    0.18879985    -0.23760000
opls_145-465    C    0.35739990    0.94741004    0.32787985    -0.24150000
opls_145-466    C    0.20076005    0.91946006    0.51159989    -0.22790000
opls_145-467    C    0.13570002    0.97012987    0.07619992    -0.23520000
opls_145-468    C    0.13472000    0.92080991    0.99469985    -0.23520000
opls_145-469    C    0.00517997    0.91353005    0.27289986    -0.22790000
opls_145-470    C    0.22778998    0.94162012    0.39332996    -0.22820000
opls_700-471    C    0.14840002    0.96042990    0.01519987    0.07900000
opls_145-472    C    0.88448007    0.68023990    0.81350016    -0.17800000
opls_145-473    C    0.91241015    0.65251991    0.84129997    -0.16480000
opls_136-474    C    0.18820015    0.02216006    0.55489995    -0.26040000
opls_149-475    C    0.39306998    0.96198990    0.22359998    -0.29460000
opls_149-476    C    0.94305999    0.96373989    0.28949998    -0.29470000
opls_149-477    C    0.16142014    0.98810991    0.52439993    -0.29650000
opls_136-478    C    0.14709988    0.01879986    0.93810019    -0.26150000
opls_149-479    C    0.17420001    0.98850014    0.97669994    -0.30750000
opls_136-480    C    0.18940014    0.08719989    0.62090023    -0.26680000
opls_136-481    C    0.16260016    0.05327000    0.59400018    -0.26320000
opls_136-482    C    0.43313999    0.93239996    0.20890013    -0.26180000
opls_136-483    C    0.46030003    0.95040015    0.15619992    -0.26170000
opls_136-484    C    0.00250013    0.04749992    0.38450021    -0.26160000
opls_136-485    C    0.96070002    0.00740012    0.30450021    -0.26250000
opls_136-486    C    0.99089996    0.00440009    0.35890013    -0.26260000
opls_136-487    C    0.19369992    0.06509996    0.89940016    -0.25990000
opls_136-488    C    0.18199991    0.02019992    0.88719996    -0.26040000
opls_136-489    C    0.16529996    0.11680005    0.66419983    -0.24670000
opls_135-490    C    0.51949991    0.96619998    0.03870003    -0.41930000
opls_136-491    C    0.52380002    0.93280011    0.08790009    -0.24560000
opls_135-492    C    0.06139985    0.06099991    0.46549979    -0.41840000
opls_136-493    C    0.03530003    0.02879986    0.43040020    -0.24550000
opls_135-494    C    0.24149995    0.11980008    0.86389990    -0.41950000
opls_136-495    C    0.20639992    0.09019992    0.84109987    -0.24650000
opls_136-496    C    0.49320009    0.91499985    0.13820001    -0.26030000
opls_135-497    C    0.19469991    0.14190001    0.70870003    -0.41680000
opls_701-498    C    0.16801007    0.75000000    0.25000000    0.01220000
opls_700-499    C    0.35952999    0.21955987    0.21327982    0.03340000
opls_716-500    C    0.25306985    0.19679013    0.35925986    0.01450000
opls_700-501    C    0.30512006    0.22011995    0.28936014    0.03000000
opls_567-502    C    0.44707991    0.19289000    0.09788997    -0.03640000
opls_145-503    C    0.39067001    0.22821994    0.17018998    -0.15490000
opls_716-504    C    0.31409998    0.17939001    0.27634022    0.02580000
opls_700-505    C    0.34937006    0.17871990    0.22890013    0.02410000
opls_145-506    C    0.37096012    0.14415987    0.20258982    -0.14970000
opls_145-507    C    0.29286998    0.14651985    0.30120981    -0.14970000
opls_567-508    C    0.22016013    0.19759012    0.40847003    -0.03680000
opls_145-509    C    0.27434011    0.23114001    0.33216017    -0.14970000
opls_700-510    C    0.20669009    0.15673000    0.41844013    0.03960000
opls_700-511    C    0.41179985    0.19375012    0.14610010    0.03150000
opls_700-512    C    0.40344988    0.15334005    0.16101017    0.00470000
opls_700-513    C    0.45793001    0.15193007    0.08926998    0.03890000
opls_701-514    C    0.23167012    0.12590987    0.37955978    0.01290000
opls_701-515    C    0.43226013    0.12239004    0.12880997    0.01220000
opls_280-516    C    0.13028013    0.27537985    0.55883987    0.27300000
opls_145-517    C    0.20014009    0.10348015    0.33696996    0.03340000
opls_567-518    C    0.16474989    0.19479993    0.48630020    0.02460000
opls_567-519    C    0.50330012    0.18791991    0.02318000    0.01570000
opls_716-520    C    0.26110002    0.15641013    0.34606008    0.03440000
opls_145-521    C    0.04876008    0.28969005    0.67844013    -0.22850000
opls_716-522    C    0.07836002    0.23148994    0.60565987    -0.00320000
opls_280-523    C    0.53993990    0.26637015    0.94901007    0.25880000
opls_716-524    C    0.11410996    0.23198990    0.56150007    -0.02900000
opls_716-525    C    0.49180011    0.15023990    0.04497999    -0.19710000
opls_716-526    C    0.55445985    0.22367015    0.94797001    -0.02780000
opls_145-527    C    0.05375003    0.33216998    0.69209991    -0.16470000
opls_700-528    C    0.25874997    0.09612993    0.41902019    0.04610000
opls_716-529    C    0.17388987    0.15532994    0.46446985    -0.19520000
opls_145-530    C    0.16895016    0.08924991    0.23821013    -0.22850000
opls_700-531    C    0.59010995    0.22220996    0.90259994    -0.03350000
opls_716-532    C    0.56351995    0.29031987    0.90263996    0.02040000
opls_141-533    C    0.05084991    0.19977002    0.61834997    -0.09220000
opls_700-534    C    0.07516006    0.27297988    0.63173007    0.00000000
opls_700-535    C    0.46261014    0.09886991    0.17235981    0.05220000
opls_145-536    C    0.55947009    0.33083005    0.88634988    -0.23520000
opls_145-537    C    0.62067993    0.27841986    0.82891991    -0.23520000
opls_145-538    C    0.17151985    0.07384992    0.36477989    -0.22880000
opls_145-539    C    0.27190986    0.10676998    0.47979990    -0.22790000
opls_145-540    C    0.40428014    0.09281995    0.08840011    0.03630000
opls_423-541    C    0.05499994    0.16007005    0.59419017    0.14240000
opls_145-542    C    0.08493997    0.35718997    0.66476011    -0.17800000
opls_142-543    C    0.13028013    0.19854012    0.53188003    -0.19530000
opls_145-544    C    0.19701002    0.10964015    0.27553015    -0.24270000
opls_145-545    C    0.11004013    0.34088987    0.61841989    -0.23730000
opls_142-546    C    0.53789001    0.19014010    0.97779981    -0.19550000
opls_145-547    C    0.39142008    0.05486997    0.10949998    -0.24190000
opls_700-548    C    0.10596997    0.29908998    0.60522977    -0.00530000
opls_145-549    C    0.39074988    0.10386015    0.03023000    -0.23980000
opls_423-550    C    0.01455988    0.20282987    0.65730990    0.18770000
opls_700-551    C    0.59341007    0.26333013    0.87465017    0.00020000
opls_423-552    C    0.65416001    0.19403992    0.85063986    0.19460000
opls_145-553    C    0.52273014    0.05702012    0.24820001    0.07920000
opls_141-554    C    0.61885000    0.19057992    0.89366990    -0.09220000
opls_145-555    C    0.13963009    0.05930013    0.26649984    0.10460000
opls_145-556    C    0.29866990    0.03206986    0.43009982    -0.23730000
opls_145-557    C    0.31120984    0.04155999    0.48699986    0.08260000
opls_145-558    C    0.46503008    0.10726002    0.23438015    -0.23520000
opls_145-559    C    0.49115986    0.06843009    0.14580017    -0.22830000
opls_423-560    C    0.61648996    0.15304001    0.92070012    0.14270000
opls_145-561    C    0.51903003    0.04833989    0.18879985    -0.23770000
opls_145-562    C    0.14260010    0.05258996    0.32787985    -0.24150000
opls_145-563    C    0.29923995    0.08053994    0.51159989    -0.22790000
opls_145-564    C    0.36429998    0.02987013    0.07619992    -0.23520000
opls_145-565    C    0.36528000    0.07919009    0.99469985    -0.23520000
opls_145-566    C    0.49482003    0.08646995    0.27289986    -0.22790000
opls_145-567    C    0.27221002    0.05837988    0.39332996    -0.22830000
opls_700-568    C    0.35159998    0.03957010    0.01519987    0.07900000
opls_145-569    C    0.61551993    0.31976010    0.81350016    -0.17790000
opls_145-570    C    0.58758985    0.34748009    0.84129997    -0.16480000
opls_136-571    C    0.31179985    0.97783994    0.55489995    -0.26040000
opls_149-572    C    0.10693002    0.03801010    0.22359998    -0.29460000
opls_149-573    C    0.55694001    0.03626011    0.28949998    -0.29470000
opls_149-574    C    0.33857986    0.01189009    0.52439993    -0.29650000
opls_136-575    C    0.35290012    0.98120014    0.93810019    -0.26170000
opls_149-576    C    0.32579999    0.01149986    0.97669994    -0.30750000
opls_136-577    C    0.31059986    0.91280011    0.62090023    -0.26680000
opls_136-578    C    0.33739984    0.94673000    0.59400018    -0.26320000
opls_136-579    C    0.06686001    0.06760004    0.20890013    -0.26180000
opls_136-580    C    0.03969997    0.04959985    0.15619992    -0.26170000
opls_136-581    C    0.49749987    0.95250008    0.38450021    -0.26170000
opls_136-582    C    0.53929998    0.99259988    0.30450021    -0.26260000
opls_136-583    C    0.50910004    0.99559991    0.35890013    -0.26250000
opls_136-584    C    0.30630008    0.93490004    0.89940016    -0.25990000
opls_136-585    C    0.31800009    0.97980008    0.88719996    -0.26040000
opls_136-586    C    0.33470004    0.88319995    0.66419983    -0.24670000
opls_135-587    C    0.98050009    0.03380002    0.03870003    -0.41930000
opls_136-588    C    0.97619998    0.06719989    0.08790009    -0.24560000
opls_135-589    C    0.43860015    0.93900009    0.46549979    -0.41840000
opls_136-590    C    0.46469997    0.97120014    0.43040020    -0.24540000
opls_135-591    C    0.25850005    0.88019992    0.86389990    -0.41940000
opls_136-592    C    0.29360008    0.90980008    0.84109987    -0.24650000
opls_136-593    C    0.00679991    0.08499985    0.13820001    -0.26030000
opls_135-594    C    0.30530009    0.85809999    0.70870003    -0.41680000
opls_701-595    C    0.33198993    0.25000000    0.25000000    0.01220000
opls_700-596    C    0.35952999    0.28044013    0.28672018    0.03340000
opls_716-597    C    0.25306985    0.30320987    0.14074014    0.01450000
opls_700-598    C    0.30512006    0.27988005    0.21063986    0.02990000
opls_567-599    C    0.44707991    0.30711000    0.40211003    -0.03650000
opls_145-600    C    0.39067001    0.27178006    0.32981002    -0.15480000
opls_716-601    C    0.31409998    0.32060999    0.22365978    0.02580000
opls_700-602    C    0.34937006    0.32128010    0.27109987    0.02410000
opls_145-603    C    0.37096012    0.35584013    0.29741018    -0.14970000
opls_145-604    C    0.29286998    0.35348015    0.19879019    -0.14970000
opls_567-605    C    0.22016013    0.30240988    0.09152997    -0.03680000
opls_145-606    C    0.27434011    0.26885999    0.16783983    -0.14970000
opls_700-607    C    0.20669009    0.34327000    0.08155987    0.03960000
opls_700-608    C    0.41179985    0.30624988    0.35389990    0.03150000
opls_700-609    C    0.40344988    0.34665995    0.33898983    0.00470000
opls_700-610    C    0.45793001    0.34806993    0.41073002    0.03890000
opls_701-611    C    0.23167012    0.37409013    0.12044022    0.01290000
opls_701-612    C    0.43226013    0.37760996    0.37119003    0.01220000
opls_280-613    C    0.13028013    0.22462015    0.94116013    0.27300000
opls_145-614    C    0.20014009    0.39651985    0.16303004    0.03340000
opls_567-615    C    0.16474989    0.30520007    0.01369980    0.02460000
opls_567-616    C    0.50330012    0.31208009    0.47682000    0.01570000
opls_716-617    C    0.26110002    0.34358987    0.15393992    0.03440000
opls_145-618    C    0.04876008    0.21030995    0.82155987    -0.22850000
opls_716-619    C    0.07836002    0.26851006    0.89434013    -0.00320000
opls_280-620    C    0.53993990    0.23362985    0.55098993    0.25870000
opls_716-621    C    0.11410996    0.26801010    0.93849993    -0.02910000
opls_716-622    C    0.49180011    0.34976010    0.45502001    -0.19710000
opls_716-623    C    0.55445985    0.27632985    0.55202999    -0.02780000
opls_145-624    C    0.05375003    0.16783002    0.80790009    -0.16480000
opls_700-625    C    0.25874997    0.40387007    0.08097981    0.04610000
opls_716-626    C    0.17388987    0.34467006    0.03553015    -0.19520000
opls_145-627    C    0.16895016    0.41075009    0.26178987    -0.22830000
opls_700-628    C    0.59010995    0.27779004    0.59740006    -0.03350000
opls_716-629    C    0.56351995    0.20968013    0.59736004    0.02040000
opls_141-630    C    0.05084991    0.30022998    0.88165003    -0.09220000
opls_700-631    C    0.07516006    0.22702012    0.86826993    0.00000000
opls_700-632    C    0.46261014    0.40113009    0.32764019    0.05220000
opls_145-633    C    0.55947009    0.16916995    0.61365012    -0.23520000
opls_145-634    C    0.62067993    0.22158014    0.67108009    -0.23520000
opls_145-635    C    0.17151985    0.42615008    0.13522011    -0.22880000
opls_145-636    C    0.27190986    0.39323002    0.02020010    -0.22790000
opls_145-637    C    0.40428014    0.40718005    0.41159989    0.03630000
opls_423-638    C    0.05499994    0.33992995    0.90580983    0.14240000
opls_145-639    C    0.08493997    0.14281003    0.83523989    -0.17800000
opls_142-640    C    0.13028013    0.30145988    0.96811997    -0.19530000
opls_145-641    C    0.19701002    0.39035985    0.22446985    -0.24270000
opls_145-642    C    0.11004013    0.15911013    0.88158011    -0.23730000
opls_142-643    C    0.53789001    0.30985990    0.52220019    -0.19550000
opls_145-644    C    0.39142008    0.44513003    0.39050002    -0.24190000
opls_700-645    C    0.10596997    0.20091002    0.89477023    -0.00530000
opls_145-646    C    0.39074988    0.39613985    0.46977000    -0.23980000
opls_423-647    C    0.01455988    0.29717013    0.84269010    0.18770000
opls_700-648    C    0.59341007    0.23666987    0.62534983    0.00020000
opls_423-649    C    0.65416001    0.30596008    0.64936014    0.19460000
opls_145-650    C    0.52273014    0.44297988    0.25179999    0.07920000
opls_141-651    C    0.61885000    0.30942008    0.60633010    -0.09220000
opls_145-652    C    0.13963009    0.44069987    0.23350016    0.10470000
opls_145-653    C    0.29866990    0.46793014    0.06990018    -0.23730000
opls_145-654    C    0.31120984    0.45844001    0.01300014    0.08260000
opls_145-655    C    0.46503008    0.39273998    0.26561985    -0.23510000
opls_145-656    C    0.49115986    0.43156991    0.35419983    -0.22830000
opls_423-657    C    0.61648996    0.34695999    0.57929988    0.14270000
opls_145-658    C    0.51903003    0.45166011    0.31120015    -0.23770000
opls_145-659    C    0.14260010    0.44741004    0.17212015    -0.24150000
opls_145-660    C    0.29923995    0.41946006    0.98840011    -0.22790000
opls_145-661    C    0.36429998    0.47012987    0.42380008    -0.23520000
opls_145-662    C    0.36528000    0.42080991    0.50530015    -0.23520000
opls_145-663    C    0.49482003    0.41353005    0.22710014    -0.22790000
opls_145-664    C    0.27221002    0.44162012    0.10667004    -0.22830000
opls_700-665    C    0.35159998    0.46042990    0.48480013    0.07900000
opls_145-666    C    0.61551993    0.18023990    0.68649984    -0.17790000
opls_145-667    C    0.58758985    0.15251991    0.65870003    -0.16480000
opls_136-668    C    0.31179985    0.52216006    0.94510005    -0.26040000
opls_149-669    C    0.10693002    0.46198990    0.27640002    -0.29460000
opls_149-670    C    0.55694001    0.46373989    0.21050002    -0.29470000
opls_149-671    C    0.33857986    0.48810991    0.97560007    -0.29650000
opls_136-672    C    0.35290012    0.51879986    0.56189981    -0.26170000
opls_149-673    C    0.32579999    0.48850014    0.52330006    -0.30740000
opls_136-674    C    0.31059986    0.58719989    0.87909977    -0.26670000
opls_136-675    C    0.33739984    0.55327000    0.90599982    -0.26320000
opls_136-676    C    0.06686001    0.43239996    0.29109987    -0.26180000
opls_136-677    C    0.03969997    0.45040015    0.34380008    -0.26170000
opls_136-678    C    0.49749987    0.54749992    0.11549979    -0.26170000
opls_136-679    C    0.53929998    0.50740012    0.19549979    -0.26260000
opls_136-680    C    0.50910004    0.50440009    0.14109987    -0.26270000
opls_136-681    C    0.30630008    0.56509996    0.60059984    -0.25990000
opls_136-682    C    0.31800009    0.52019992    0.61280004    -0.26040000
opls_136-683    C    0.33470004    0.61680005    0.83580017    -0.24650000
opls_135-684    C    0.98050009    0.46619998    0.46129997    -0.41930000
opls_136-685    C    0.97619998    0.43280011    0.41209991    -0.24560000
opls_135-686    C    0.43860015    0.56099991    0.03450021    -0.41840000
opls_136-687    C    0.46469997    0.52879986    0.06959980    -0.24540000
opls_135-688    C    0.25850005    0.61980008    0.63610010    -0.41950000
opls_136-689    C    0.29360008    0.59019992    0.65890013    -0.24640000
opls_136-690    C    0.00679991    0.41499985    0.36179999    -0.26030000
opls_135-691    C    0.30530009    0.64190001    0.79129997    -0.41670000
opls_700-692    C    0.14047001    0.71955987    0.28672018    0.03340000
opls_716-693    C    0.24693015    0.69679013    0.14074014    0.01450000
opls_700-694    C    0.19487994    0.72011995    0.21063986    0.02990000
opls_567-695    C    0.05292009    0.69289000    0.40211003    -0.03650000
opls_145-696    C    0.10932999    0.72821994    0.32981002    -0.15490000
opls_716-697    C    0.18590002    0.67939001    0.22365978    0.02580000
opls_700-698    C    0.15062994    0.67871990    0.27109987    0.02420000
opls_145-699    C    0.12903988    0.64415987    0.29741018    -0.14970000
opls_145-700    C    0.20713002    0.64651985    0.19879019    -0.14960000
opls_567-701    C    0.27983987    0.69759012    0.09152997    -0.03680000
opls_145-702    C    0.22565989    0.73114001    0.16783983    -0.14960000
opls_700-703    C    0.29330991    0.65673000    0.08155987    0.03960000
opls_700-704    C    0.08820015    0.69375012    0.35389990    0.03150000
opls_700-705    C    0.09655012    0.65334005    0.33898983    0.00470000
opls_700-706    C    0.04206999    0.65193007    0.41073002    0.03890000
opls_701-707    C    0.26832988    0.62590987    0.12044022    0.01290000
opls_701-708    C    0.06773987    0.62239004    0.37119003    0.01220000
opls_280-709    C    0.36971987    0.77537985    0.94116013    0.27300000
opls_145-710    C    0.29985991    0.60348015    0.16303004    0.03340000
opls_567-711    C    0.33525011    0.69479993    0.01369980    0.02460000
opls_567-712    C    0.99669988    0.68791991    0.47682000    0.01570000
opls_716-713    C    0.23889998    0.65641013    0.15393992    0.03440000
opls_145-714    C    0.45123992    0.78969005    0.82155987    -0.22850000
opls_716-715    C    0.42163998    0.73148994    0.89434013    -0.00320000
opls_280-716    C    0.96006010    0.76637015    0.55098993    0.25870000
opls_716-717    C    0.38589004    0.73198990    0.93849993    -0.02910000
opls_716-718    C    0.00819989    0.65023990    0.45502001    -0.19710000
opls_716-719    C    0.94554015    0.72367015    0.55202999    -0.02780000
opls_145-720    C    0.44624997    0.83216998    0.80790009    -0.16480000
opls_700-721    C    0.24125003    0.59612993    0.08097981    0.04610000
opls_716-722    C    0.32611013    0.65532994    0.03553015    -0.19520000
opls_145-723    C    0.33104984    0.58924991    0.26178987    -0.22850000
opls_700-724    C    0.90989005    0.72220996    0.59740006    -0.03350000
opls_716-725    C    0.93648005    0.79031987    0.59736004    0.02040000
opls_141-726    C    0.44915009    0.69977002    0.88165003    -0.09220000
opls_700-727    C    0.42483994    0.77297988    0.86826993    0.00000000
opls_700-728    C    0.03738986    0.59886991    0.32764019    0.05220000
opls_145-729    C    0.94052991    0.83083005    0.61365012    -0.23520000
opls_145-730    C    0.87932007    0.77841986    0.67108009    -0.23510000
opls_145-731    C    0.32848015    0.57384992    0.13522011    -0.22880000
opls_145-732    C    0.22809014    0.60676998    0.02020010    -0.22790000
opls_145-733    C    0.09571986    0.59281995    0.41159989    0.03630000
opls_423-734    C    0.44500006    0.66007005    0.90580983    0.14240000
opls_145-735    C    0.41506003    0.85718997    0.83523989    -0.17800000
opls_142-736    C    0.36971987    0.69854012    0.96811997    -0.19530000
opls_145-737    C    0.30298998    0.60964015    0.22446985    -0.24270000
opls_145-738    C    0.38995987    0.84088987    0.88158011    -0.23730000
opls_142-739    C    0.96210999    0.69014010    0.52220019    -0.19530000
opls_145-740    C    0.10857992    0.55486997    0.39050002    -0.24190000
opls_700-741    C    0.39403003    0.79908998    0.89477023    -0.00530000
opls_145-742    C    0.10925012    0.60386015    0.46977000    -0.23980000
opls_423-743    C    0.48544012    0.70282987    0.84269010    0.18780000
opls_700-744    C    0.90658993    0.76333013    0.62534983    0.00020000
opls_423-745    C    0.84583999    0.69403992    0.64936014    0.19460000
opls_145-746    C    0.97726986    0.55702012    0.25179999    0.07920000
opls_141-747    C    0.88115000    0.69057992    0.60633010    -0.09220000
opls_145-748    C    0.36036991    0.55930013    0.23350016    0.10460000
opls_145-749    C    0.20133010    0.53206986    0.06990018    -0.23730000
opls_145-750    C    0.18879016    0.54155999    0.01300014    0.08260000
opls_145-751    C    0.03496992    0.60726002    0.26561985    -0.23520000
opls_145-752    C    0.00884014    0.56843009    0.35419983    -0.22830000
opls_423-753    C    0.88351004    0.65304001    0.57929988    0.14280000
opls_145-754    C    0.98096997    0.54833989    0.31120015    -0.23770000
opls_145-755    C    0.35739990    0.55258996    0.17212015    -0.24140000
opls_145-756    C    0.20076005    0.58053994    0.98840011    -0.22790000
opls_145-757    C    0.13570002    0.52987013    0.42380008    -0.23520000
opls_145-758    C    0.13472000    0.57919009    0.50530015    -0.23510000
opls_145-759    C    0.00517997    0.58646995    0.22710014    -0.22790000
opls_145-760    C    0.22778998    0.55837988    0.10667004    -0.22830000
opls_700-761    C    0.14840002    0.53957010    0.48480013    0.07900000
opls_145-762    C    0.88448007    0.81976010    0.68649984    -0.17790000
opls_145-763    C    0.91241015    0.84748009    0.65870003    -0.16480000
opls_136-764    C    0.18820015    0.47783994    0.94510005    -0.26040000
opls_149-765    C    0.39306998    0.53801010    0.27640002    -0.29460000
opls_149-766    C    0.94305999    0.53626011    0.21050002    -0.29470000
opls_149-767    C    0.16142014    0.51189009    0.97560007    -0.29650000
opls_136-768    C    0.14709988    0.48120014    0.56189981    -0.26170000
opls_149-769    C    0.17420001    0.51149986    0.52330006    -0.30750000
opls_136-770    C    0.18940014    0.41280011    0.87909977    -0.26680000
opls_136-771    C    0.16260016    0.44673000    0.90599982    -0.26320000
opls_136-772    C    0.43313999    0.56760004    0.29109987    -0.26180000
opls_136-773    C    0.46030003    0.54959985    0.34380008    -0.26170000
opls_136-774    C    0.00250013    0.45250008    0.11549979    -0.26170000
opls_136-775    C    0.96070002    0.49259988    0.19549979    -0.26260000
opls_136-776    C    0.99089996    0.49559991    0.14109987    -0.26270000
opls_136-777    C    0.19369992    0.43490004    0.60059984    -0.25990000
opls_136-778    C    0.18199991    0.47980008    0.61280004    -0.26040000
opls_136-779    C    0.16529996    0.38319995    0.83580017    -0.24670000
opls_135-780    C    0.51949991    0.53380002    0.46129997    -0.41940000
opls_136-781    C    0.52380002    0.56719989    0.41209991    -0.24560000
opls_135-782    C    0.06139985    0.43900009    0.03450021    -0.41840000
opls_136-783    C    0.03530003    0.47120014    0.06959980    -0.24540000
opls_135-784    C    0.24149995    0.38019992    0.63610010    -0.41950000
opls_136-785    C    0.20639992    0.40980008    0.65890013    -0.24650000
opls_136-786    C    0.49320009    0.58499985    0.36179999    -0.26030000
opls_135-787    C    0.19469991    0.35809999    0.79129997    -0.41680000
opls_146-788    H    0.89729987    0.25570003    0.84220019    0.19740000
opls_146-789    H    0.86360015    0.11639990    0.78710014    0.19740000
opls_146-790    H    0.79889985    0.11879986    0.71059984    0.19740000
opls_146-791    H    0.76800009    0.25909990    0.65749988    0.19740000
opls_146-792    H    0.52850012    0.27300003    0.30020010    0.19740000
opls_570-793    H    0.00499994    0.12509996    0.96790009    0.19740000
opls_146-794    H    0.53490003    0.34429997    0.27860021    0.19750000
opls_570-795    H    0.66019987    0.13069987    0.52170017    0.19740000
opls_146-796    H    0.66840009    0.09429997    0.80480013    0.19740000
opls_146-797    H    0.03809999    0.34779996    0.09510005    0.19740000
opls_146-798    H    0.14160011    0.26140006    0.19050002    0.19740000
opls_146-799    H    0.67240003    0.06889998    0.59220019    0.19740000
opls_146-800    H    0.76199985    0.13170009    0.50170017    0.19740000
opls_146-801    H    0.58880014    0.38500015    0.32209991    0.19740000
opls_144-802    H    0.61689994    0.17300003    0.45749988    0.19740000
opls_146-803    H    0.71560012    0.12950005    0.74270022    0.19740000
opls_146-804    H    0.62959994    0.35790007    0.40389990    0.19740000
opls_144-805    H    0.05079999    0.16429997    0.03250012    0.19740000
opls_146-806    H    0.90159998    0.04550011    0.85170017    0.19740000
opls_146-807    H    0.89960001    0.12989989    0.98580017    0.19740000
opls_146-808    H    0.80779990    0.00639990    0.58680022    0.19740000
opls_146-809    H    0.94629989    0.12740012    0.74829983    0.19740000
opls_146-810    H    0.99140011    0.06220004    0.89690004    0.19740000
opls_146-811    H    0.03659985    0.02660013    0.82669994    0.19740000
opls_146-812    H    0.62420001    0.03259988    0.65369980    0.19740000
opls_146-813    H    0.81010003    0.08879986    0.44949998    0.19740000
opls_146-814    H    0.85359995    0.00520007    0.90530015    0.19740000
opls_146-815    H    0.85650008    0.08870006    0.04469985    0.19740000
opls_146-816    H    0.99580005    0.09259988    0.68439993    0.19740000
opls_146-817    H    0.76400014    0.05060007    0.64719996    0.19750000
opls_146-818    H    0.13270006    0.33010011    0.21929988    0.19740000
opls_146-819    H    0.08730000    0.37609987    0.16909977    0.19740000
opls_140-820    H    0.78980013    0.99110002    0.41860021    0.15850000
opls_140-821    H    0.79640005    0.96239996    0.47769999    0.15860000
opls_140-822    H    0.62140005    0.03040015    0.81539997    0.15860000
opls_140-823    H    0.59640005    0.01220004    0.75680022    0.15850000
opls_140-824    H    0.08479987    0.03419986    0.73239983    0.15860000
opls_140-825    H    0.06119986    0.05239996    0.67230001    0.15850000
opls_140-826    H    0.86030003    0.99900009    0.50280004    0.15850000
opls_140-827    H    0.85410011    0.02760004    0.44339988    0.15850000
opls_140-828    H    0.88059993    0.99310015    0.07590000    0.15850000
opls_140-829    H    0.85759990    0.95410005    0.04150007    0.15850000
opls_702-830    H    0.80619992    0.99529988    0.99640002    0.15850000
opls_702-831    H    0.80770006    0.02829991    0.05129997    0.15850000
opls_140-832    H    0.78639985    0.92539999    0.35610010    0.15850000
opls_140-833    H    0.79809986    0.89639990    0.41319978    0.15850000
opls_140-834    H    0.85170014    0.96190001    0.37209991    0.15860000
opls_140-835    H    0.86019987    0.93419986    0.43189981    0.15850000
opls_140-836    H    0.57739997    0.09539999    0.80270022    0.15820000
opls_140-837    H    0.54880002    0.07049995    0.75389990    0.15850000
opls_140-838    H    0.55819989    0.04229985    0.87929988    0.15850000
opls_140-839    H    0.52420001    0.02440009    0.83009982    0.15850000
opls_140-840    H    0.98410004    0.93399994    0.64640002    0.15850000
opls_140-841    H    0.02209988    0.93850014    0.59510005    0.15850000
opls_140-842    H    0.06340015    0.97360010    0.68569989    0.15850000
opls_140-843    H    0.02369986    0.98129994    0.73159989    0.15850000
opls_140-844    H    0.02289987    0.01229985    0.60829983    0.15850000
opls_140-845    H    0.98239990    0.01000000    0.65389990    0.15860000
opls_140-846    H    0.83119992    0.92110002    0.08079994    0.15860000
opls_140-847    H    0.78199991    0.93410005    0.07129997    0.15870000
opls_140-848    H    0.82990010    0.98429997    0.15450021    0.15850000
opls_140-849    H    0.79380008    0.99909990    0.10500023    0.15850000
opls_140-850    H    0.85159998    0.86349998    0.36109987    0.15850000
opls_140-851    H    0.85539993    0.89959985    0.31109987    0.15850000
opls_140-852    H    0.46250000    0.00989989    0.95029992    0.13050000
opls_140-853    H    0.47100005    0.04490004    0.00109987    0.13050000
opls_140-854    H    0.51059986    0.02500015    0.96430011    0.13080000
opls_140-855    H    0.46720010    0.09209993    0.93560007    0.15850000
opls_140-856    H    0.45030016    0.05870006    0.88860021    0.15850000
opls_140-857    H    0.95799990    0.91790007    0.51760017    0.13080000
opls_140-858    H    0.92309986    0.95250008    0.50070012    0.13080000
opls_140-859    H    0.91789993    0.92580014    0.56239983    0.13050000
opls_140-860    H    0.94469991    0.98939993    0.59250012    0.15850000
opls_140-861    H    0.98050009    0.98870006    0.53970008    0.15860000
opls_140-862    H    0.75270013    0.88559991    0.09250012    0.13080000
opls_140-863    H    0.73219991    0.88449989    0.16009982    0.13080000
opls_140-864    H    0.76829993    0.85149986    0.14109987    0.13080000
opls_140-865    H    0.81860008    0.89429997    0.17530015    0.15850000
opls_140-866    H    0.78239990    0.92840002    0.19150007    0.15850000
opls_140-867    H    0.52249987    0.10950005    0.87790009    0.15850000
opls_140-868    H    0.49000013    0.09369990    0.82530015    0.15860000
opls_140-869    H    0.77550015    0.86760004    0.29539997    0.13080000
opls_140-870    H    0.80699991    0.82859994    0.30159989    0.13080000
opls_140-871    H    0.81500013    0.86229985    0.24879985    0.13060000
opls_146-872    H    0.60270013    0.74429997    0.84220019    0.19740000
opls_146-873    H    0.63639985    0.88360010    0.78710014    0.19740000
opls_146-874    H    0.70110015    0.88120014    0.71059984    0.19740000
opls_146-875    H    0.73199991    0.74090010    0.65749988    0.19740000
opls_146-876    H    0.97149988    0.72699997    0.30020010    0.19740000
opls_570-877    H    0.49500006    0.87490004    0.96790009    0.19740000
opls_146-878    H    0.96509997    0.65570003    0.27860021    0.19740000
opls_570-879    H    0.83980013    0.86930013    0.52170017    0.19740000
opls_146-880    H    0.83159991    0.90570003    0.80480013    0.19740000
opls_146-881    H    0.46190001    0.65220004    0.09510005    0.19740000
opls_146-882    H    0.35839989    0.73859994    0.19050002    0.19740000
opls_146-883    H    0.82759997    0.93110002    0.59220019    0.19740000
opls_146-884    H    0.73800015    0.86829991    0.50170017    0.19740000
opls_146-885    H    0.91119986    0.61499985    0.32209991    0.19740000
opls_144-886    H    0.88310006    0.82699997    0.45749988    0.19740000
opls_146-887    H    0.78439988    0.87049995    0.74270022    0.19740000
opls_146-888    H    0.87040006    0.64209993    0.40389990    0.19740000
opls_144-889    H    0.44920001    0.83570003    0.03250012    0.19740000
opls_146-890    H    0.59840002    0.95449989    0.85170017    0.19740000
opls_146-891    H    0.60039999    0.87010011    0.98580017    0.19740000
opls_146-892    H    0.69220010    0.99360010    0.58680022    0.19740000
opls_146-893    H    0.55370011    0.87259988    0.74829983    0.19750000
opls_146-894    H    0.50859989    0.93779996    0.89690004    0.19740000
opls_146-895    H    0.46340015    0.97339987    0.82669994    0.19750000
opls_146-896    H    0.87579999    0.96740012    0.65369980    0.19760000
opls_146-897    H    0.68989997    0.91120014    0.44949998    0.19740000
opls_146-898    H    0.64640005    0.99479993    0.90530015    0.19760000
opls_146-899    H    0.64349992    0.91129994    0.04469985    0.19740000
opls_146-900    H    0.50419995    0.90740012    0.68439993    0.19740000
opls_146-901    H    0.73599986    0.94939993    0.64719996    0.19750000
opls_146-902    H    0.36729994    0.66989989    0.21929988    0.19740000
opls_146-903    H    0.41270000    0.62390013    0.16909977    0.19750000
opls_140-904    H    0.71019987    0.00889998    0.41860021    0.15850000
opls_140-905    H    0.70359995    0.03760004    0.47769999    0.15850000
opls_140-906    H    0.87859995    0.96959985    0.81539997    0.15870000
opls_140-907    H    0.90359995    0.98779996    0.75680022    0.15850000
opls_140-908    H    0.41520013    0.96580014    0.73239983    0.15860000
opls_140-909    H    0.43880014    0.94760004    0.67230001    0.15850000
opls_140-910    H    0.63969997    0.00099991    0.50280004    0.15850000
opls_140-911    H    0.64589989    0.97239996    0.44339988    0.15850000
opls_140-912    H    0.61940007    0.00689985    0.07590000    0.15850000
opls_140-913    H    0.64240010    0.04589995    0.04150007    0.15850000
opls_702-914    H    0.69380008    0.00470012    0.99640002    0.15850000
opls_702-915    H    0.69229994    0.97170009    0.05129997    0.15860000
opls_140-916    H    0.71360015    0.07460001    0.35610010    0.15850000
opls_140-917    H    0.70190014    0.10360010    0.41319978    0.15850000
opls_140-918    H    0.64829986    0.03809999    0.37209991    0.15850000
opls_140-919    H    0.63980013    0.06580014    0.43189981    0.15850000
opls_140-920    H    0.92260003    0.90460001    0.80270022    0.15820000
opls_140-921    H    0.95119998    0.92950005    0.75389990    0.15850000
opls_140-922    H    0.94180011    0.95770015    0.87929988    0.15850000
opls_140-923    H    0.97579999    0.97559991    0.83009982    0.15850000
opls_140-924    H    0.51589996    0.06600006    0.64640002    0.15870000
opls_140-925    H    0.47790012    0.06149986    0.59510005    0.15850000
opls_140-926    H    0.43659985    0.02639990    0.68569989    0.15850000
opls_140-927    H    0.47630014    0.01870006    0.73159989    0.15860000
opls_140-928    H    0.47710013    0.98770015    0.60829983    0.15850000
opls_140-929    H    0.51760010    0.99000000    0.65389990    0.15860000
opls_140-930    H    0.66880008    0.07889998    0.08079994    0.15850000
opls_140-931    H    0.71800009    0.06589995    0.07129997    0.15880000
opls_140-932    H    0.67009990    0.01570003    0.15450021    0.15850000
opls_140-933    H    0.70619992    0.00090010    0.10500023    0.15860000
opls_140-934    H    0.64840002    0.13650002    0.36109987    0.15850000
opls_140-935    H    0.64460007    0.10040015    0.31109987    0.15850000
opls_140-936    H    0.03750000    0.99010011    0.95029992    0.13050000
opls_140-937    H    0.02899995    0.95509996    0.00109987    0.13050000
opls_140-938    H    0.98940014    0.97499985    0.96430011    0.13080000
opls_140-939    H    0.03279990    0.90790007    0.93560007    0.15850000
opls_140-940    H    0.04969984    0.94129994    0.88860021    0.15850000
opls_140-941    H    0.54200010    0.08209993    0.51760017    0.13080000
opls_140-942    H    0.57690014    0.04749992    0.50070012    0.13080000
opls_140-943    H    0.58210007    0.07419986    0.56239983    0.13050000
opls_140-944    H    0.55530009    0.01060007    0.59250012    0.15850000
opls_140-945    H    0.51949991    0.01129994    0.53970008    0.15850000
opls_140-946    H    0.74729987    0.11440009    0.09250012    0.13080000
opls_140-947    H    0.76780009    0.11550011    0.16009982    0.13080000
opls_140-948    H    0.73170007    0.14850014    0.14109987    0.13080000
opls_140-949    H    0.68139992    0.10570003    0.17530015    0.15850000
opls_140-950    H    0.71760010    0.07159998    0.19150007    0.15850000
opls_140-951    H    0.97750013    0.89049995    0.87790009    0.15850000
opls_140-952    H    0.00999987    0.90630010    0.82530015    0.15860000
opls_140-953    H    0.72449985    0.13239996    0.29539997    0.13080000
opls_140-954    H    0.69300009    0.17140006    0.30159989    0.13080000
opls_140-955    H    0.68499987    0.13770015    0.24879985    0.13060000
opls_146-956    H    0.60270013    0.75570003    0.65779981    0.19750000
opls_146-957    H    0.63639985    0.61639990    0.71289986    0.19740000
opls_146-958    H    0.70110015    0.61879986    0.78940016    0.19750000
opls_146-959    H    0.73199991    0.75909990    0.84250012    0.19740000
opls_146-960    H    0.97149988    0.77300003    0.19979990    0.19740000
opls_570-961    H    0.49500006    0.62509996    0.53209991    0.19740000
opls_146-962    H    0.96509997    0.84429997    0.22139979    0.19740000
opls_570-963    H    0.83980013    0.63069987    0.97829983    0.19740000
opls_146-964    H    0.83159991    0.59429997    0.69519987    0.19740000
opls_146-965    H    0.46190001    0.84779996    0.40489995    0.19740000
opls_146-966    H    0.35839989    0.76140006    0.30949998    0.19750000
opls_146-967    H    0.82759997    0.56889998    0.90779981    0.19740000
opls_146-968    H    0.73800015    0.63170009    0.99829983    0.19750000
opls_146-969    H    0.91119986    0.88500015    0.17790009    0.19740000
opls_144-970    H    0.88310006    0.67300003    0.04250012    0.19750000
opls_146-971    H    0.78439988    0.62950005    0.75729978    0.19740000
opls_146-972    H    0.87040006    0.85790007    0.09610010    0.19750000
opls_144-973    H    0.44920001    0.66429997    0.46749988    0.19750000
opls_146-974    H    0.59840002    0.54550011    0.64829983    0.19750000
opls_146-975    H    0.60039999    0.62989989    0.51419983    0.19740000
opls_146-976    H    0.69220010    0.50639990    0.91319978    0.19740000
opls_146-977    H    0.55370011    0.62740012    0.75170017    0.19740000
opls_146-978    H    0.50859989    0.56220004    0.60309996    0.19750000
opls_146-979    H    0.46340015    0.52660013    0.67330006    0.19740000
opls_146-980    H    0.87579999    0.53259988    0.84630020    0.19740000
opls_146-981    H    0.68989997    0.58879986    0.05050002    0.19740000
opls_146-982    H    0.64640005    0.50520007    0.59469985    0.19740000
opls_146-983    H    0.64349992    0.58870006    0.45530015    0.19740000
opls_146-984    H    0.50419995    0.59259988    0.81560007    0.19740000
opls_146-985    H    0.73599986    0.55060007    0.85280004    0.19740000
opls_146-986    H    0.36729994    0.83010011    0.28070012    0.19740000
opls_146-987    H    0.41270000    0.87609987    0.33090023    0.19740000
opls_140-988    H    0.71019987    0.49110002    0.08139979    0.15860000
opls_140-989    H    0.70359995    0.46239996    0.02230001    0.15850000
opls_140-990    H    0.87859995    0.53040015    0.68460003    0.15850000
opls_140-991    H    0.90359995    0.51220004    0.74319978    0.15850000
opls_140-992    H    0.41520013    0.53419986    0.76760017    0.15850000
opls_140-993    H    0.43880014    0.55239996    0.82769999    0.15850000
opls_140-994    H    0.63969997    0.49900009    0.99719996    0.15850000
opls_140-995    H    0.64589989    0.52760004    0.05660012    0.15850000
opls_140-996    H    0.61940007    0.49310015    0.42410000    0.15850000
opls_140-997    H    0.64240010    0.45410005    0.45849993    0.15850000
opls_702-998    H    0.69380008    0.49529988    0.50359998    0.15850000
opls_702-999    H    0.69229994    0.52829991    0.44870003    0.15850000
opls_140-1000    H    0.71360015    0.42539999    0.14389990    0.15850000
opls_140-1001    H    0.70190014    0.39639990    0.08680022    0.15850000
opls_140-1002    H    0.64829986    0.46190001    0.12790009    0.15850000
opls_140-1003    H    0.63980013    0.43419986    0.06810019    0.15850000
opls_140-1004    H    0.92260003    0.59539999    0.69729978    0.15820000
opls_140-1005    H    0.95119998    0.57049995    0.74610010    0.15850000
opls_140-1006    H    0.94180011    0.54229985    0.62070012    0.15860000
opls_140-1007    H    0.97579999    0.52440009    0.66990018    0.15850000
opls_140-1008    H    0.51589996    0.43399994    0.85359998    0.15850000
opls_140-1009    H    0.47790012    0.43850014    0.90489995    0.15850000
opls_140-1010    H    0.43659985    0.47360010    0.81430011    0.15850000
opls_140-1011    H    0.47630014    0.48129994    0.76840011    0.15850000
opls_140-1012    H    0.47710013    0.51229985    0.89170017    0.15850000
opls_140-1013    H    0.51760010    0.51000000    0.84610010    0.15860000
opls_140-1014    H    0.66880008    0.42110002    0.41920006    0.15850000
opls_140-1015    H    0.71800009    0.43410005    0.42870003    0.15870000
opls_140-1016    H    0.67009990    0.48429997    0.34549979    0.15860000
opls_140-1017    H    0.70619992    0.49909990    0.39499977    0.15850000
opls_140-1018    H    0.64840002    0.36349998    0.13890013    0.15850000
opls_140-1019    H    0.64460007    0.39959985    0.18890013    0.15850000
opls_140-1020    H    0.03750000    0.50989989    0.54970008    0.13050000
opls_140-1021    H    0.02899995    0.54490004    0.49890013    0.13050000
opls_140-1022    H    0.98940014    0.52500015    0.53569989    0.13080000
opls_140-1023    H    0.03279990    0.59209993    0.56439993    0.15850000
opls_140-1024    H    0.04969984    0.55870006    0.61139979    0.15850000
opls_140-1025    H    0.54200010    0.41790007    0.98239983    0.13080000
opls_140-1026    H    0.57690014    0.45250008    0.99929988    0.13080000
opls_140-1027    H    0.58210007    0.42580014    0.93760017    0.13050000
opls_140-1028    H    0.55530009    0.48939993    0.90749988    0.15860000
opls_140-1029    H    0.51949991    0.48870006    0.96029992    0.15870000
opls_140-1030    H    0.74729987    0.38559991    0.40749988    0.13080000
opls_140-1031    H    0.76780009    0.38449989    0.33990018    0.13080000
opls_140-1032    H    0.73170007    0.35149986    0.35890013    0.13080000
opls_140-1033    H    0.68139992    0.39429997    0.32469985    0.15850000
opls_140-1034    H    0.71760010    0.42840002    0.30849993    0.15850000
opls_140-1035    H    0.97750013    0.60950005    0.62209991    0.15860000
opls_140-1036    H    0.00999987    0.59369990    0.67469985    0.15850000
opls_140-1037    H    0.72449985    0.36760004    0.20460003    0.13080000
opls_140-1038    H    0.69300009    0.32859994    0.19840011    0.13080000
opls_140-1039    H    0.68499987    0.36229985    0.25120015    0.13060000
opls_146-1040    H    0.89729987    0.24429997    0.65779981    0.19740000
opls_146-1041    H    0.86360015    0.38360010    0.71289986    0.19740000
opls_146-1042    H    0.79889985    0.38120014    0.78940016    0.19750000
opls_146-1043    H    0.76800009    0.24090010    0.84250012    0.19740000
opls_146-1044    H    0.52850012    0.22699997    0.19979990    0.19740000
opls_570-1045    H    0.00499994    0.37490004    0.53209991    0.19750000
opls_146-1046    H    0.53490003    0.15570003    0.22139979    0.19740000
opls_570-1047    H    0.66019987    0.36930013    0.97829983    0.19740000
opls_146-1048    H    0.66840009    0.40570003    0.69519987    0.19740000
opls_146-1049    H    0.03809999    0.15220004    0.40489995    0.19740000
opls_146-1050    H    0.14160011    0.23859994    0.30949998    0.19750000
opls_146-1051    H    0.67240003    0.43110002    0.90779981    0.19750000
opls_146-1052    H    0.76199985    0.36829991    0.99829983    0.19740000
opls_146-1053    H    0.58880014    0.11500015    0.17790009    0.19740000
opls_144-1054    H    0.61689994    0.32699997    0.04250012    0.19740000
opls_146-1055    H    0.71560012    0.37049995    0.75729978    0.19740000
opls_146-1056    H    0.62959994    0.14209993    0.09610010    0.19750000
opls_144-1057    H    0.05079999    0.33570003    0.46749988    0.19740000
opls_146-1058    H    0.90159998    0.45449989    0.64829983    0.19740000
opls_146-1059    H    0.89960001    0.37010011    0.51419983    0.19740000
opls_146-1060    H    0.80779990    0.49360010    0.91319978    0.19740000
opls_146-1061    H    0.94629989    0.37259988    0.75170017    0.19740000
opls_146-1062    H    0.99140011    0.43779996    0.60309996    0.19740000
opls_146-1063    H    0.03659985    0.47339987    0.67330006    0.19740000
opls_146-1064    H    0.62420001    0.46740012    0.84630020    0.19740000
opls_146-1065    H    0.81010003    0.41120014    0.05050002    0.19750000
opls_146-1066    H    0.85359995    0.49479993    0.59469985    0.19740000
opls_146-1067    H    0.85650008    0.41129994    0.45530015    0.19750000
opls_146-1068    H    0.99580005    0.40740012    0.81560007    0.19740000
opls_146-1069    H    0.76400014    0.44939993    0.85280004    0.19740000
opls_146-1070    H    0.13270006    0.16989989    0.28070012    0.19750000
opls_146-1071    H    0.08730000    0.12390013    0.33090023    0.19740000
opls_140-1072    H    0.78980013    0.50889998    0.08139979    0.15850000
opls_140-1073    H    0.79640005    0.53760004    0.02230001    0.15850000
opls_140-1074    H    0.62140005    0.46959985    0.68460003    0.15850000
opls_140-1075    H    0.59640005    0.48779996    0.74319978    0.15850000
opls_140-1076    H    0.08479987    0.46580014    0.76760017    0.15850000
opls_140-1077    H    0.06119986    0.44760004    0.82769999    0.15850000
opls_140-1078    H    0.86030003    0.50099991    0.99719996    0.15850000
opls_140-1079    H    0.85410011    0.47239996    0.05660012    0.15850000
opls_140-1080    H    0.88059993    0.50689985    0.42410000    0.15860000
opls_140-1081    H    0.85759990    0.54589995    0.45849993    0.15850000
opls_702-1082    H    0.80619992    0.50470012    0.50359998    0.15850000
opls_702-1083    H    0.80770006    0.47170009    0.44870003    0.15850000
opls_140-1084    H    0.78639985    0.57460001    0.14389990    0.15850000
opls_140-1085    H    0.79809986    0.60360010    0.08680022    0.15850000
opls_140-1086    H    0.85170014    0.53809999    0.12790009    0.15850000
opls_140-1087    H    0.86019987    0.56580014    0.06810019    0.15850000
opls_140-1088    H    0.57739997    0.40460001    0.69729978    0.15840000
opls_140-1089    H    0.54880002    0.42950005    0.74610010    0.15850000
opls_140-1090    H    0.55819989    0.45770015    0.62070012    0.15850000
opls_140-1091    H    0.52420001    0.47559991    0.66990018    0.15850000
opls_140-1092    H    0.98410004    0.56600006    0.85359998    0.15850000
opls_140-1093    H    0.02209988    0.56149986    0.90489995    0.15850000
opls_140-1094    H    0.06340015    0.52639990    0.81430011    0.15860000
opls_140-1095    H    0.02369986    0.51870006    0.76840011    0.15850000
opls_140-1096    H    0.02289987    0.48770015    0.89170017    0.15870000
opls_140-1097    H    0.98239990    0.49000000    0.84610010    0.15850000
opls_140-1098    H    0.83119992    0.57889998    0.41920006    0.15850000
opls_140-1099    H    0.78199991    0.56589995    0.42870003    0.15880000
opls_140-1100    H    0.82990010    0.51570003    0.34549979    0.15850000
opls_140-1101    H    0.79380008    0.50090010    0.39499977    0.15850000
opls_140-1102    H    0.85159998    0.63650002    0.13890013    0.15850000
opls_140-1103    H    0.85539993    0.60040015    0.18890013    0.15850000
opls_140-1104    H    0.46250000    0.49010011    0.54970008    0.13050000
opls_140-1105    H    0.47100005    0.45509996    0.49890013    0.13050000
opls_140-1106    H    0.51059986    0.47500015    0.53569989    0.13080000
opls_140-1107    H    0.46720010    0.40790007    0.56439993    0.15860000
opls_140-1108    H    0.45030016    0.44129994    0.61139979    0.15860000
opls_140-1109    H    0.95799990    0.58209993    0.98239983    0.13080000
opls_140-1110    H    0.92309986    0.54749992    0.99929988    0.13080000
opls_140-1111    H    0.91789993    0.57419986    0.93760017    0.13050000
opls_140-1112    H    0.94469991    0.51060007    0.90749988    0.15850000
opls_140-1113    H    0.98050009    0.51129994    0.96029992    0.15850000
opls_140-1114    H    0.75270013    0.61440009    0.40749988    0.13080000
opls_140-1115    H    0.73219991    0.61550011    0.33990018    0.13080000
opls_140-1116    H    0.76829993    0.64850014    0.35890013    0.13080000
opls_140-1117    H    0.81860008    0.60570003    0.32469985    0.15850000
opls_140-1118    H    0.78239990    0.57159998    0.30849993    0.15850000
opls_140-1119    H    0.52249987    0.39049995    0.62209991    0.15850000
opls_140-1120    H    0.49000013    0.40630010    0.67469985    0.15850000
opls_140-1121    H    0.77550015    0.63239996    0.20460003    0.13080000
opls_140-1122    H    0.80699991    0.67140006    0.19840011    0.13080000
opls_140-1123    H    0.81500013    0.63770015    0.25120015    0.13060000
opls_146-1124    H    0.10270013    0.74429997    0.15779981    0.19740000
opls_146-1125    H    0.13639985    0.88360010    0.21289986    0.19740000
opls_146-1126    H    0.20110015    0.88120014    0.28940016    0.19750000
opls_146-1127    H    0.23199991    0.74090010    0.34250012    0.19750000
opls_146-1128    H    0.47149988    0.72699997    0.69979990    0.19750000
opls_570-1129    H    0.99500006    0.87490004    0.03209991    0.19740000
opls_146-1130    H    0.46509997    0.65570003    0.72139979    0.19740000
opls_570-1131    H    0.33980013    0.86930013    0.47829983    0.19740000
opls_146-1132    H    0.33159991    0.90570003    0.19519987    0.19740000
opls_146-1133    H    0.96190001    0.65220004    0.90489995    0.19740000
opls_146-1134    H    0.85839989    0.73859994    0.80949998    0.19740000
opls_146-1135    H    0.32759997    0.93110002    0.40779981    0.19740000
opls_146-1136    H    0.23800015    0.86829991    0.49829983    0.19750000
opls_146-1137    H    0.41119986    0.61499985    0.67790009    0.19740000
opls_144-1138    H    0.38310006    0.82699997    0.54250012    0.19740000
opls_146-1139    H    0.28439988    0.87049995    0.25729978    0.19740000
opls_146-1140    H    0.37040006    0.64209993    0.59610010    0.19750000
opls_144-1141    H    0.94920001    0.83570003    0.96749988    0.19740000
opls_146-1142    H    0.09840002    0.95449989    0.14829983    0.19740000
opls_146-1143    H    0.10039999    0.87010011    0.01419983    0.19740000
opls_146-1144    H    0.19220010    0.99360010    0.41319978    0.19740000
opls_146-1145    H    0.05370011    0.87259988    0.25170017    0.19740000
opls_146-1146    H    0.00859989    0.93779996    0.10309996    0.19740000
opls_146-1147    H    0.96340015    0.97339987    0.17330006    0.19760000
opls_146-1148    H    0.37579999    0.96740012    0.34630020    0.19750000
opls_146-1149    H    0.18989997    0.91120014    0.55050002    0.19740000
opls_146-1150    H    0.14640005    0.99479993    0.09469985    0.19740000
opls_146-1151    H    0.14349992    0.91129994    0.95530015    0.19740000
opls_146-1152    H    0.00419995    0.90740012    0.31560007    0.19740000
opls_146-1153    H    0.23599986    0.94939993    0.35280004    0.19750000
opls_146-1154    H    0.86729994    0.66989989    0.78070012    0.19740000
opls_146-1155    H    0.91270000    0.62390013    0.83090023    0.19740000
opls_140-1156    H    0.21019987    0.00889998    0.58139979    0.15850000
opls_140-1157    H    0.20359995    0.03760004    0.52230001    0.15850000
opls_140-1158    H    0.37859995    0.96959985    0.18460003    0.15850000
opls_140-1159    H    0.40359995    0.98779996    0.24319978    0.15850000
opls_140-1160    H    0.91520013    0.96580014    0.26760017    0.15870000
opls_140-1161    H    0.93880014    0.94760004    0.32769999    0.15850000
opls_140-1162    H    0.13969997    0.00099991    0.49719996    0.15850000
opls_140-1163    H    0.14589989    0.97239996    0.55660012    0.15850000
opls_140-1164    H    0.11940007    0.00689985    0.92410000    0.15850000
opls_140-1165    H    0.14240010    0.04589995    0.95849993    0.15850000
opls_702-1166    H    0.19380008    0.00470012    0.00359998    0.15850000
opls_702-1167    H    0.19229994    0.97170009    0.94870003    0.15850000
opls_140-1168    H    0.21360015    0.07460001    0.64389990    0.15850000
opls_140-1169    H    0.20190014    0.10360010    0.58680022    0.15850000
opls_140-1170    H    0.14829986    0.03809999    0.62790009    0.15850000
opls_140-1171    H    0.13980013    0.06580014    0.56810019    0.15850000
opls_140-1172    H    0.42260003    0.90460001    0.19729978    0.15820000
opls_140-1173    H    0.45119998    0.92950005    0.24610010    0.15850000
opls_140-1174    H    0.44180011    0.95770015    0.12070012    0.15850000
opls_140-1175    H    0.47579999    0.97559991    0.16990018    0.15850000
opls_140-1176    H    0.01589996    0.06600006    0.35359998    0.15850000
opls_140-1177    H    0.97790012    0.06149986    0.40489995    0.15850000
opls_140-1178    H    0.93659985    0.02639990    0.31430011    0.15850000
opls_140-1179    H    0.97630014    0.01870006    0.26840011    0.15850000
opls_140-1180    H    0.97710013    0.98770015    0.39170017    0.15850000
opls_140-1181    H    0.01760010    0.99000000    0.34610010    0.15850000
opls_140-1182    H    0.16880008    0.07889998    0.91920006    0.15850000
opls_140-1183    H    0.21800009    0.06589995    0.92870003    0.15870000
opls_140-1184    H    0.17009990    0.01570003    0.84549979    0.15850000
opls_140-1185    H    0.20619992    0.00090010    0.89500023    0.15850000
opls_140-1186    H    0.14840002    0.13650002    0.63890013    0.15850000
opls_140-1187    H    0.14460007    0.10040015    0.68890013    0.15850000
opls_140-1188    H    0.53750000    0.99010011    0.04970008    0.13050000
opls_140-1189    H    0.52899995    0.95509996    0.99890013    0.13050000
opls_140-1190    H    0.48940014    0.97499985    0.03569989    0.13080000
opls_140-1191    H    0.53279990    0.90790007    0.06439993    0.15850000
opls_140-1192    H    0.54969984    0.94129994    0.11139979    0.15860000
opls_140-1193    H    0.04200010    0.08209993    0.48239983    0.13080000
opls_140-1194    H    0.07690014    0.04749992    0.49929988    0.13080000
opls_140-1195    H    0.08210007    0.07419986    0.43760017    0.13050000
opls_140-1196    H    0.05530009    0.01060007    0.40749988    0.15850000
opls_140-1197    H    0.01949991    0.01129994    0.46029992    0.15850000
opls_140-1198    H    0.24729987    0.11440009    0.90749988    0.13080000
opls_140-1199    H    0.26780009    0.11550011    0.83990018    0.13080000
opls_140-1200    H    0.23170007    0.14850014    0.85890013    0.13080000
opls_140-1201    H    0.18139992    0.10570003    0.82469985    0.15850000
opls_140-1202    H    0.21760010    0.07159998    0.80849993    0.15850000
opls_140-1203    H    0.47750013    0.89049995    0.12209991    0.15850000
opls_140-1204    H    0.50999987    0.90630010    0.17469985    0.15850000
opls_140-1205    H    0.22449985    0.13239996    0.70460003    0.13080000
opls_140-1206    H    0.19300009    0.17140006    0.69840011    0.13080000
opls_140-1207    H    0.18499987    0.13770015    0.75120015    0.13060000
opls_146-1208    H    0.39729987    0.25570003    0.15779981    0.19740000
opls_146-1209    H    0.36360015    0.11639990    0.21289986    0.19740000
opls_146-1210    H    0.29889985    0.11879986    0.28940016    0.19740000
opls_146-1211    H    0.26800009    0.25909990    0.34250012    0.19740000
opls_146-1212    H    0.02850012    0.27300003    0.69979990    0.19740000
opls_570-1213    H    0.50499994    0.12509996    0.03209991    0.19740000
opls_146-1214    H    0.03490003    0.34429997    0.72139979    0.19740000
opls_570-1215    H    0.16019987    0.13069987    0.47829983    0.19740000
opls_146-1216    H    0.16840009    0.09429997    0.19519987    0.19740000
opls_146-1217    H    0.53809999    0.34779996    0.90489995    0.19750000
opls_146-1218    H    0.64160011    0.26140006    0.80949998    0.19740000
opls_146-1219    H    0.17240003    0.06889998    0.40779981    0.19740000
opls_146-1220    H    0.26199985    0.13170009    0.49829983    0.19740000
opls_146-1221    H    0.08880014    0.38500015    0.67790009    0.19740000
opls_144-1222    H    0.11689994    0.17300003    0.54250012    0.19740000
opls_146-1223    H    0.21560012    0.12950005    0.25729978    0.19750000
opls_146-1224    H    0.12959994    0.35790007    0.59610010    0.19740000
opls_144-1225    H    0.55079999    0.16429997    0.96749988    0.19740000
opls_146-1226    H    0.40159998    0.04550011    0.14829983    0.19750000
opls_146-1227    H    0.39960001    0.12989989    0.01419983    0.19740000
opls_146-1228    H    0.30779990    0.00639990    0.41319978    0.19740000
opls_146-1229    H    0.44629989    0.12740012    0.25170017    0.19740000
opls_146-1230    H    0.49140011    0.06220004    0.10309996    0.19740000
opls_146-1231    H    0.53659985    0.02660013    0.17330006    0.19740000
opls_146-1232    H    0.12420001    0.03259988    0.34630020    0.19740000
opls_146-1233    H    0.31010003    0.08879986    0.55050002    0.19740000
opls_146-1234    H    0.35359995    0.00520007    0.09469985    0.19740000
opls_146-1235    H    0.35650008    0.08870006    0.95530015    0.19740000
opls_146-1236    H    0.49580005    0.09259988    0.31560007    0.19740000
opls_146-1237    H    0.26400014    0.05060007    0.35280004    0.19740000
opls_146-1238    H    0.63270006    0.33010011    0.78070012    0.19740000
opls_146-1239    H    0.58730000    0.37609987    0.83090023    0.19740000
opls_140-1240    H    0.28980013    0.99110002    0.58139979    0.15850000
opls_140-1241    H    0.29640005    0.96239996    0.52230001    0.15860000
opls_140-1242    H    0.12140005    0.03040015    0.18460003    0.15850000
opls_140-1243    H    0.09640005    0.01220004    0.24319978    0.15850000
opls_140-1244    H    0.58479987    0.03419986    0.26760017    0.15860000
opls_140-1245    H    0.56119986    0.05239996    0.32769999    0.15850000
opls_140-1246    H    0.36030003    0.99900009    0.49719996    0.15850000
opls_140-1247    H    0.35410011    0.02760004    0.55660012    0.15850000
opls_140-1248    H    0.38059993    0.99310015    0.92410000    0.15850000
opls_140-1249    H    0.35759990    0.95410005    0.95849993    0.15850000
opls_702-1250    H    0.30619992    0.99529988    0.00359998    0.15850000
opls_702-1251    H    0.30770006    0.02829991    0.94870003    0.15860000
opls_140-1252    H    0.28639985    0.92539999    0.64389990    0.15850000
opls_140-1253    H    0.29809986    0.89639990    0.58680022    0.15860000
opls_140-1254    H    0.35170014    0.96190001    0.62790009    0.15850000
opls_140-1255    H    0.36019987    0.93419986    0.56810019    0.15850000
opls_140-1256    H    0.07739997    0.09539999    0.19729978    0.15820000
opls_140-1257    H    0.04880002    0.07049995    0.24610010    0.15850000
opls_140-1258    H    0.05819989    0.04229985    0.12070012    0.15850000
opls_140-1259    H    0.02420001    0.02440009    0.16990018    0.15850000
opls_140-1260    H    0.48410004    0.93399994    0.35359998    0.15850000
opls_140-1261    H    0.52209988    0.93850014    0.40489995    0.15850000
opls_140-1262    H    0.56340015    0.97360010    0.31430011    0.15850000
opls_140-1263    H    0.52369986    0.98129994    0.26840011    0.15850000
opls_140-1264    H    0.52289987    0.01229985    0.39170017    0.15850000
opls_140-1265    H    0.48239990    0.01000000    0.34610010    0.15860000
opls_140-1266    H    0.33119992    0.92110002    0.91920006    0.15850000
opls_140-1267    H    0.28199991    0.93410005    0.92870003    0.15880000
opls_140-1268    H    0.32990010    0.98429997    0.84549979    0.15850000
opls_140-1269    H    0.29380008    0.99909990    0.89500023    0.15850000
opls_140-1270    H    0.35159998    0.86349998    0.63890013    0.15850000
opls_140-1271    H    0.35539993    0.89959985    0.68890013    0.15850000
opls_140-1272    H    0.96250000    0.00989989    0.04970008    0.13050000
opls_140-1273    H    0.97100005    0.04490004    0.99890013    0.13050000
opls_140-1274    H    0.01059986    0.02500015    0.03569989    0.13080000
opls_140-1275    H    0.96720010    0.09209993    0.06439993    0.15850000
opls_140-1276    H    0.95030016    0.05870006    0.11139979    0.15850000
opls_140-1277    H    0.45799990    0.91790007    0.48239983    0.13080000
opls_140-1278    H    0.42309986    0.95250008    0.49929988    0.13090000
opls_140-1279    H    0.41789993    0.92580014    0.43760017    0.13050000
opls_140-1280    H    0.44469991    0.98939993    0.40749988    0.15850000
opls_140-1281    H    0.48050009    0.98870006    0.46029992    0.15850000
opls_140-1282    H    0.25270013    0.88559991    0.90749988    0.13080000
opls_140-1283    H    0.23219991    0.88449989    0.83990018    0.13080000
opls_140-1284    H    0.26829993    0.85149986    0.85890013    0.13080000
opls_140-1285    H    0.31860008    0.89429997    0.82469985    0.15850000
opls_140-1286    H    0.28239990    0.92840002    0.80849993    0.15850000
opls_140-1287    H    0.02249987    0.10950005    0.12209991    0.15850000
opls_140-1288    H    0.99000013    0.09369990    0.17469985    0.15850000
opls_140-1289    H    0.27550015    0.86760004    0.70460003    0.13080000
opls_140-1290    H    0.30699991    0.82859994    0.69840011    0.13080000
opls_140-1291    H    0.31500013    0.86229985    0.75120015    0.13060000
opls_146-1292    H    0.39729987    0.24429997    0.34220019    0.19750000
opls_146-1293    H    0.36360015    0.38360010    0.28710014    0.19740000
opls_146-1294    H    0.29889985    0.38120014    0.21059984    0.19740000
opls_146-1295    H    0.26800009    0.24090010    0.15749988    0.19740000
opls_146-1296    H    0.02850012    0.22699997    0.80020010    0.19740000
opls_570-1297    H    0.50499994    0.37490004    0.46790009    0.19740000
opls_146-1298    H    0.03490003    0.15570003    0.77860021    0.19740000
opls_570-1299    H    0.16019987    0.36930013    0.02170017    0.19740000
opls_146-1300    H    0.16840009    0.40570003    0.30480013    0.19740000
opls_146-1301    H    0.53809999    0.15220004    0.59510005    0.19740000
opls_146-1302    H    0.64160011    0.23859994    0.69050002    0.19750000
opls_146-1303    H    0.17240003    0.43110002    0.09220019    0.19740000
opls_146-1304    H    0.26199985    0.36829991    0.00170017    0.19740000
opls_146-1305    H    0.08880014    0.11500015    0.82209991    0.19750000
opls_144-1306    H    0.11689994    0.32699997    0.95749988    0.19740000
opls_146-1307    H    0.21560012    0.37049995    0.24270022    0.19750000
opls_146-1308    H    0.12959994    0.14209993    0.90389990    0.19740000
opls_144-1309    H    0.55079999    0.33570003    0.53250012    0.19740000
opls_146-1310    H    0.40159998    0.45449989    0.35170017    0.19740000
opls_146-1311    H    0.39960001    0.37010011    0.48580017    0.19740000
opls_146-1312    H    0.30779990    0.49360010    0.08680022    0.19740000
opls_146-1313    H    0.44629989    0.37259988    0.24829983    0.19740000
opls_146-1314    H    0.49140011    0.43779996    0.39690004    0.19750000
opls_146-1315    H    0.53659985    0.47339987    0.32669994    0.19740000
opls_146-1316    H    0.12420001    0.46740012    0.15369980    0.19740000
opls_146-1317    H    0.31010003    0.41120014    0.94949998    0.19740000
opls_146-1318    H    0.35359995    0.49479993    0.40530015    0.19740000
opls_146-1319    H    0.35650008    0.41129994    0.54469985    0.19740000
opls_146-1320    H    0.49580005    0.40740012    0.18439993    0.19740000
opls_146-1321    H    0.26400014    0.44939993    0.14719996    0.19740000
opls_146-1322    H    0.63270006    0.16989989    0.71929988    0.19740000
opls_146-1323    H    0.58730000    0.12390013    0.66909977    0.19740000
opls_140-1324    H    0.28980013    0.50889998    0.91860021    0.15850000
opls_140-1325    H    0.29640005    0.53760004    0.97769999    0.15850000
opls_140-1326    H    0.12140005    0.46959985    0.31539997    0.15860000
opls_140-1327    H    0.09640005    0.48779996    0.25680022    0.15850000
opls_140-1328    H    0.58479987    0.46580014    0.23239983    0.15850000
opls_140-1329    H    0.56119986    0.44760004    0.17230001    0.15860000
opls_140-1330    H    0.36030003    0.50099991    0.00280004    0.15850000
opls_140-1331    H    0.35410011    0.47239996    0.94339988    0.15850000
opls_140-1332    H    0.38059993    0.50689985    0.57590000    0.15850000
opls_140-1333    H    0.35759990    0.54589995    0.54150007    0.15850000
opls_702-1334    H    0.30619992    0.50470012    0.49640002    0.15850000
opls_702-1335    H    0.30770006    0.47170009    0.55129997    0.15850000
opls_140-1336    H    0.28639985    0.57460001    0.85610010    0.15850000
opls_140-1337    H    0.29809986    0.60360010    0.91319978    0.15850000
opls_140-1338    H    0.35170014    0.53809999    0.87209991    0.15850000
opls_140-1339    H    0.36019987    0.56580014    0.93189981    0.15850000
opls_140-1340    H    0.07739997    0.40460001    0.30270022    0.15820000
opls_140-1341    H    0.04880002    0.42950005    0.25389990    0.15850000
opls_140-1342    H    0.05819989    0.45770015    0.37929988    0.15860000
opls_140-1343    H    0.02420001    0.47559991    0.33009982    0.15850000
opls_140-1344    H    0.48410004    0.56600006    0.14640002    0.15850000
opls_140-1345    H    0.52209988    0.56149986    0.09510005    0.15850000
opls_140-1346    H    0.56340015    0.52639990    0.18569989    0.15850000
opls_140-1347    H    0.52369986    0.51870006    0.23159989    0.15850000
opls_140-1348    H    0.52289987    0.48770015    0.10829983    0.15850000
opls_140-1349    H    0.48239990    0.49000000    0.15389990    0.15850000
opls_140-1350    H    0.33119992    0.57889998    0.58079994    0.15850000
opls_140-1351    H    0.28199991    0.56589995    0.57129997    0.15870000
opls_140-1352    H    0.32990010    0.51570003    0.65450021    0.15850000
opls_140-1353    H    0.29380008    0.50090010    0.60499977    0.15850000
opls_140-1354    H    0.35159998    0.63650002    0.86109987    0.15850000
opls_140-1355    H    0.35539993    0.60040015    0.81109987    0.15850000
opls_140-1356    H    0.96250000    0.49010011    0.45029992    0.13050000
opls_140-1357    H    0.97100005    0.45509996    0.50109987    0.13050000
opls_140-1358    H    0.01059986    0.47500015    0.46430011    0.13080000
opls_140-1359    H    0.96720010    0.40790007    0.43560007    0.15850000
opls_140-1360    H    0.95030016    0.44129994    0.38860021    0.15860000
opls_140-1361    H    0.45799990    0.58209993    0.01760017    0.13080000
opls_140-1362    H    0.42309986    0.54749992    0.00070012    0.13080000
opls_140-1363    H    0.41789993    0.57419986    0.06239983    0.13060000
opls_140-1364    H    0.44469991    0.51060007    0.09250012    0.15850000
opls_140-1365    H    0.48050009    0.51129994    0.03970008    0.15850000
opls_140-1366    H    0.25270013    0.61440009    0.59250012    0.13090000
opls_140-1367    H    0.23219991    0.61550011    0.66009982    0.13080000
opls_140-1368    H    0.26829993    0.64850014    0.64109987    0.13080000
opls_140-1369    H    0.31860008    0.60570003    0.67530015    0.15850000
opls_140-1370    H    0.28239990    0.57159998    0.69150007    0.15850000
opls_140-1371    H    0.02249987    0.39049995    0.37790009    0.15860000
opls_140-1372    H    0.99000013    0.40630010    0.32530015    0.15850000
opls_140-1373    H    0.27550015    0.63239996    0.79539997    0.13080000
opls_140-1374    H    0.30699991    0.67140006    0.80159989    0.13080000
opls_140-1375    H    0.31500013    0.63770015    0.74879985    0.13060000
opls_146-1376    H    0.10270013    0.75570003    0.34220019    0.19740000
opls_146-1377    H    0.13639985    0.61639990    0.28710014    0.19740000
opls_146-1378    H    0.20110015    0.61879986    0.21059984    0.19740000
opls_146-1379    H    0.23199991    0.75909990    0.15749988    0.19740000
opls_146-1380    H    0.47149988    0.77300003    0.80020010    0.19740000
opls_570-1381    H    0.99500006    0.62509996    0.46790009    0.19740000
opls_146-1382    H    0.46509997    0.84429997    0.77860021    0.19740000
opls_570-1383    H    0.33980013    0.63069987    0.02170017    0.19740000
opls_146-1384    H    0.33159991    0.59429997    0.30480013    0.19760000
opls_146-1385    H    0.96190001    0.84779996    0.59510005    0.19740000
opls_146-1386    H    0.85839989    0.76140006    0.69050002    0.19740000
opls_146-1387    H    0.32759997    0.56889998    0.09220019    0.19740000
opls_146-1388    H    0.23800015    0.63170009    0.00170017    0.19740000
opls_146-1389    H    0.41119986    0.88500015    0.82209991    0.19740000
opls_144-1390    H    0.38310006    0.67300003    0.95749988    0.19740000
opls_146-1391    H    0.28439988    0.62950005    0.24270022    0.19740000
opls_146-1392    H    0.37040006    0.85790007    0.90389990    0.19740000
opls_144-1393    H    0.94920001    0.66429997    0.53250012    0.19740000
opls_146-1394    H    0.09840002    0.54550011    0.35170017    0.19740000
opls_146-1395    H    0.10039999    0.62989989    0.48580017    0.19740000
opls_146-1396    H    0.19220010    0.50639990    0.08680022    0.19740000
opls_146-1397    H    0.05370011    0.62740012    0.24829983    0.19740000
opls_146-1398    H    0.00859989    0.56220004    0.39690004    0.19760000
opls_146-1399    H    0.96340015    0.52660013    0.32669994    0.19740000
opls_146-1400    H    0.37579999    0.53259988    0.15369980    0.19740000
opls_146-1401    H    0.18989997    0.58879986    0.94949998    0.19740000
opls_146-1402    H    0.14640005    0.50520007    0.40530015    0.19740000
opls_146-1403    H    0.14349992    0.58870006    0.54469985    0.19740000
opls_146-1404    H    0.00419995    0.59259988    0.18439993    0.19760000
opls_146-1405    H    0.23599986    0.55060007    0.14719996    0.19740000
opls_146-1406    H    0.86729994    0.83010011    0.71929988    0.19740000
opls_146-1407    H    0.91270000    0.87609987    0.66909977    0.19740000
opls_140-1408    H    0.21019987    0.49110002    0.91860021    0.15850000
opls_140-1409    H    0.20359995    0.46239996    0.97769999    0.15850000
opls_140-1410    H    0.37859995    0.53040015    0.31539997    0.15850000
opls_140-1411    H    0.40359995    0.51220004    0.25680022    0.15850000
opls_140-1412    H    0.91520013    0.53419986    0.23239983    0.15850000
opls_140-1413    H    0.93880014    0.55239996    0.17230001    0.15850000
opls_140-1414    H    0.13969997    0.49900009    0.00280004    0.15850000
opls_140-1415    H    0.14589989    0.52760004    0.94339988    0.15850000
opls_140-1416    H    0.11940007    0.49310015    0.57590000    0.15850000
opls_140-1417    H    0.14240010    0.45410005    0.54150007    0.15850000
opls_702-1418    H    0.19380008    0.49529988    0.49640002    0.15850000
opls_702-1419    H    0.19229994    0.52829991    0.55129997    0.15850000
opls_140-1420    H    0.21360015    0.42539999    0.85610010    0.15850000
opls_140-1421    H    0.20190014    0.39639990    0.91319978    0.15850000
opls_140-1422    H    0.14829986    0.46190001    0.87209991    0.15850000
opls_140-1423    H    0.13980013    0.43419986    0.93189981    0.15850000
opls_140-1424    H    0.42260003    0.59539999    0.30270022    0.15820000
opls_140-1425    H    0.45119998    0.57049995    0.25389990    0.15850000
opls_140-1426    H    0.44180011    0.54229985    0.37929988    0.15850000
opls_140-1427    H    0.47579999    0.52440009    0.33009982    0.15850000
opls_140-1428    H    0.01589996    0.43399994    0.14640002    0.15850000
opls_140-1429    H    0.97790012    0.43850014    0.09510005    0.15850000
opls_140-1430    H    0.93659985    0.47360010    0.18569989    0.15850000
opls_140-1431    H    0.97630014    0.48129994    0.23159989    0.15850000
opls_140-1432    H    0.97710013    0.51229985    0.10829983    0.15850000
opls_140-1433    H    0.01760010    0.51000000    0.15389990    0.15850000
opls_140-1434    H    0.16880008    0.42110002    0.58079994    0.15850000
opls_140-1435    H    0.21800009    0.43410005    0.57129997    0.15870000
opls_140-1436    H    0.17009990    0.48429997    0.65450021    0.15850000
opls_140-1437    H    0.20619992    0.49909990    0.60499977    0.15850000
opls_140-1438    H    0.14840002    0.36349998    0.86109987    0.15850000
opls_140-1439    H    0.14460007    0.39959985    0.81109987    0.15850000
opls_140-1440    H    0.53750000    0.50989989    0.45029992    0.13050000
opls_140-1441    H    0.52899995    0.54490004    0.50109987    0.13050000
opls_140-1442    H    0.48940014    0.52500015    0.46430011    0.13090000
opls_140-1443    H    0.53279990    0.59209993    0.43560007    0.15850000
opls_140-1444    H    0.54969984    0.55870006    0.38860021    0.15850000
opls_140-1445    H    0.04200010    0.41790007    0.01760017    0.13080000
opls_140-1446    H    0.07690014    0.45250008    0.00070012    0.13080000
opls_140-1447    H    0.08210007    0.42580014    0.06239983    0.13050000
opls_140-1448    H    0.05530009    0.48939993    0.09250012    0.15850000
opls_140-1449    H    0.01949991    0.48870006    0.03970008    0.15850000
opls_140-1450    H    0.24729987    0.38559991    0.59250012    0.13080000
opls_140-1451    H    0.26780009    0.38449989    0.66009982    0.13080000
opls_140-1452    H    0.23170007    0.35149986    0.64109987    0.13080000
opls_140-1453    H    0.18139992    0.39429997    0.67530015    0.15860000
opls_140-1454    H    0.21760010    0.42840002    0.69150007    0.15850000
opls_140-1455    H    0.47750013    0.60950005    0.37790009    0.15850000
opls_140-1456    H    0.50999987    0.59369990    0.32530015    0.15850000
opls_140-1457    H    0.22449985    0.36760004    0.79539997    0.13090000
opls_140-1458    H    0.19300009    0.32859994    0.80159989    0.13080000
opls_140-1459    H    0.18499987    0.36229985    0.74879985    0.13060000
opls_281-1460    O    0.01095992    0.28175991    0.01786007    -0.46140000
opls_281-1461    O    0.65829007    0.28955987    0.47556005    -0.44210000
opls_281-1462    O    0.48904008    0.71824009    0.01786007    -0.46140000
opls_281-1463    O    0.84170993    0.71044013    0.47556005    -0.44210000
opls_281-1464    O    0.48904008    0.78175991    0.48213993    -0.46150000
opls_281-1465    O    0.84170993    0.78955987    0.02443995    -0.44210000
opls_281-1466    O    0.01095992    0.21824009    0.48213993    -0.46150000
opls_281-1467    O    0.65829007    0.21044013    0.02443995    -0.44210000
opls_281-1468    O    0.98904008    0.71824009    0.98213993    -0.46130000
opls_281-1469    O    0.34170993    0.71044013    0.52443995    -0.44200000
opls_281-1470    O    0.51095992    0.28175991    0.98213993    -0.46140000
opls_281-1471    O    0.15829007    0.28955987    0.52443995    -0.44210000
opls_281-1472    O    0.51095992    0.21824009    0.51786007    -0.46150000
opls_281-1473    O    0.15829007    0.21044013    0.97556005    -0.44190000
opls_281-1474    O    0.98904008    0.78175991    0.51786007    -0.46150000
opls_281-1475    O    0.34170993    0.78955987    0.97556005    -0.44200000
opls_753-1476    N    0.48420987    0.20414004    0.30834997    -0.34190000
opls_753-1477    N    0.18230007    0.19571986    0.18258016    -0.40030000
opls_753-1478    N    0.11544006    0.11882001    0.05450021    -0.34250000
opls_753-1479    N    0.55495002    0.12581006    0.42450021    -0.34050000
opls_753-1480    N    0.01579013    0.79585996    0.30834997    -0.34180000
opls_753-1481    N    0.31769993    0.80428014    0.18258016    -0.40020000
opls_753-1482    N    0.38455994    0.88117999    0.05450021    -0.34250000
opls_753-1483    N    0.94504998    0.87418994    0.42450021    -0.34050000
opls_753-1484    N    0.01579013    0.70414004    0.19165003    -0.34190000
opls_753-1485    N    0.31769993    0.69571986    0.31741984    -0.40030000
opls_753-1486    N    0.38455994    0.61882001    0.44549979    -0.34250000
opls_753-1487    N    0.94504998    0.62581006    0.07549979    -0.34050000
opls_753-1488    N    0.48420987    0.29585996    0.19165003    -0.34190000
opls_753-1489    N    0.18230007    0.30428014    0.31741984    -0.40020000
opls_753-1490    N    0.11544006    0.38117999    0.44549979    -0.34230000
opls_753-1491    N    0.55495002    0.37418994    0.07549979    -0.34050000
opls_753-1492    N    0.51579013    0.79585996    0.69165003    -0.34180000
opls_753-1493    N    0.81769993    0.80428014    0.81741984    -0.40030000
opls_753-1494    N    0.88455994    0.88117999    0.94549979    -0.34250000
opls_753-1495    N    0.44504998    0.87418994    0.57549979    -0.34050000
opls_753-1496    N    0.98420987    0.20414004    0.69165003    -0.34190000
opls_753-1497    N    0.68230007    0.19571986    0.81741984    -0.40030000
opls_753-1498    N    0.61544006    0.11882001    0.94549979    -0.34250000
opls_753-1499    N    0.05495002    0.12581006    0.57549979    -0.34040000
opls_753-1500    N    0.98420987    0.29585996    0.80834997    -0.34180000
opls_753-1501    N    0.68230007    0.30428014    0.68258016    -0.40030000
opls_753-1502    N    0.61544006    0.38117999    0.55450021    -0.34250000
opls_753-1503    N    0.05495002    0.37418994    0.92450021    -0.34050000
opls_753-1504    N    0.51579013    0.70414004    0.80834997    -0.34190000
opls_753-1505    N    0.81769993    0.69571986    0.68258016    -0.40030000
opls_753-1506    N    0.88455994    0.61882001    0.55450021    -0.34250000
opls_753-1507    N    0.44504998    0.62581006    0.92450021    -0.34040000
