#======================================================================
# Crystal Data Generated By AuToFF
#----------------------------------------------------------------------

data_AuToFF_phase_1

_cell_length_a                         37.2861
_cell_length_b                         37.2861
_cell_length_c                         3.5349
_cell_angle_alpha                      90.00
_cell_angle_beta                       90.00
_cell_angle_gamma                      120.00
_symmetry_space_group_name_H-M_alt     'P 1'
_symmetry_space_group_IT_number        1

loop_
_space_group_symop_operation_xyz
   'x, y, z'

loop_
   _atom_site_label
   _atom_site_type_symbol
   _atom_site_fract_x
   _atom_site_fract_y
   _atom_site_fract_z
   _atom_site_charge
opls_143-0    C    0.54800999    0.61814002    0.14144955    0.00610000
opls_700-1    C    0.61328014    0.36679001    0.14144955    -0.00600000
opls_523-2    C    0.62960006    0.40978009    0.14144955    -0.08480000
opls_700-3    C    0.60324001    0.42630992    0.14144955    0.01430000
opls_521-4    C    0.56010010    0.39995002    0.14144955    0.25260000
opls_522-5    C    0.54382014    0.35708010    0.14144955    -0.11560000
opls_523-6    C    0.57020003    0.34057009    0.14144955    -0.07770000
opls_141-7    C    0.48204995    0.52595003    0.14144955    0.23180000
opls_142-8    C    0.54214997    0.51714007    0.14144955    0.04130000
opls_531-9    C    0.35890989    0.65064999    0.14144955    0.41840000
opls_521-10    C    0.08956005    0.54446000    0.14144955    0.12350000
opls_700-11    C    0.85576011    0.38302998    0.14144955    0.02950000
opls_522-12    C    0.90306993    0.41188998    0.14144955    -0.13060000
opls_608-13    C    0.83929013    0.33603008    0.14144955    0.04170000
opls_145-14    C    0.80137000    0.30714995    0.14144955    -0.08250000
opls_145-15    C    0.78490002    0.26015006    0.14144955    -0.08130000
opls_145-16    C    0.80636006    0.24203989    0.14144955    -0.12940000
opls_145-17    C    0.84428997    0.27092994    0.14144955    -0.08130000
opls_145-18    C    0.86074990    0.31791992    0.14144955    -0.08250000
opls_143-19    C    0.38186004    0.92986992    0.14144955    0.00610000
opls_700-20    C    0.63321015    0.24649009    0.14144955    -0.00600000
opls_523-21    C    0.59022003    0.21981988    0.14144955    -0.08480000
opls_700-22    C    0.57369013    0.17693014    0.14144955    0.01430000
opls_521-23    C    0.60005005    0.16015009    0.14144955    0.25260000
opls_522-24    C    0.64292014    0.18674009    0.14144955    -0.11570000
opls_523-25    C    0.65943008    0.22963013    0.14144955    -0.07770000
opls_141-26    C    0.47405015    0.95610007    0.14144955    0.23180000
opls_142-27    C    0.48285989    0.02500998    0.14144955    0.04130000
opls_531-28    C    0.34934996    0.70826005    0.14144955    0.41840000
opls_521-29    C    0.45553997    0.54510012    0.14144955    0.12350000
opls_700-30    C    0.61697015    0.47273008    0.14144955    0.02950000
opls_522-31    C    0.58810985    0.49117997    0.14144955    -0.13070000
opls_608-32    C    0.66396995    0.50325992    0.14144955    0.04170000
opls_145-33    C    0.69285003    0.49421985    0.14144955    -0.08250000
opls_145-34    C    0.73984998    0.52475000    0.14144955    -0.08130000
opls_145-35    C    0.75796004    0.56431989    0.14144955    -0.12950000
opls_145-36    C    0.72907004    0.57335995    0.14144955    -0.08130000
opls_145-37    C    0.68208016    0.54283012    0.14144955    -0.08250000
opls_143-38    C    0.07012998    0.45199006    0.14144955    0.00610000
opls_700-39    C    0.75350998    0.38671990    0.14144955    -0.00600000
opls_523-40    C    0.78017991    0.37040003    0.14144955    -0.08480000
opls_700-41    C    0.82306987    0.39675993    0.14144955    0.01430000
opls_521-42    C    0.83984986    0.43989990    0.14144955    0.25260000
opls_522-43    C    0.81326014    0.45618012    0.14144955    -0.11570000
opls_523-44    C    0.77037004    0.42980009    0.14144955    -0.07770000
opls_141-45    C    0.04389989    0.51794990    0.14144955    0.23180000
opls_142-46    C    0.97498986    0.45784995    0.14144955    0.04130000
opls_531-47    C    0.29173988    0.64108996    0.14144955    0.41840000
opls_521-48    C    0.45489998    0.91043988    0.14144955    0.12350000
opls_700-49    C    0.52727001    0.14423994    0.14144955    0.02950000
opls_522-50    C    0.50881995    0.09693005    0.14144955    -0.13070000
opls_608-51    C    0.49673993    0.16071000    0.14144955    0.04170000
opls_145-52    C    0.50577982    0.19862988    0.14144955    -0.08250000
opls_145-53    C    0.47525000    0.21509995    0.14144955    -0.08130000
opls_145-54    C    0.43568001    0.19363990    0.14144955    -0.12950000
opls_145-55    C    0.42663999    0.15571011    0.14144955    -0.08130000
opls_145-56    C    0.45716994    0.13924996    0.14144955    -0.08250000
opls_143-57    C    0.45199001    0.38185998    0.14144955    0.00610000
opls_700-58    C    0.38671986    0.63320999    0.14144955    -0.00600000
opls_523-59    C    0.37039994    0.59021991    0.14144955    -0.08480000
opls_700-60    C    0.39675999    0.57369008    0.14144955    0.01430000
opls_521-61    C    0.43989990    0.60004998    0.14144955    0.25260000
opls_522-62    C    0.45617986    0.64291990    0.14144955    -0.11570000
opls_523-63    C    0.42979997    0.65942991    0.14144955    -0.07770000
opls_141-64    C    0.51795005    0.47404997    0.14144955    0.23180000
opls_142-65    C    0.45785003    0.48285993    0.14144955    0.04130000
opls_531-66    C    0.64109011    0.34935001    0.14144955    0.41840000
opls_521-67    C    0.91043995    0.45554000    0.14144955    0.12350000
opls_700-68    C    0.14423989    0.61697002    0.14144955    0.02950000
opls_522-69    C    0.09693007    0.58811002    0.14144955    -0.13070000
opls_608-70    C    0.16070987    0.66396992    0.14144955    0.04170000
opls_145-71    C    0.19863000    0.69285005    0.14144955    -0.08240000
opls_145-72    C    0.21509998    0.73984994    0.14144955    -0.08130000
opls_145-73    C    0.19363994    0.75796011    0.14144955    -0.12950000
opls_145-74    C    0.15571003    0.72907006    0.14144955    -0.08130000
opls_145-75    C    0.13925010    0.68208008    0.14144955    -0.08250000
opls_143-76    C    0.61813996    0.07013008    0.14144955    0.00610000
opls_700-77    C    0.36678985    0.75350991    0.14144955    -0.00600000
opls_523-78    C    0.40977997    0.78018012    0.14144955    -0.08480000
opls_700-79    C    0.42630987    0.82306986    0.14144955    0.01430000
opls_521-80    C    0.39994995    0.83984991    0.14144955    0.25270000
opls_522-81    C    0.35707986    0.81325991    0.14144955    -0.11570000
opls_523-82    C    0.34056992    0.77036987    0.14144955    -0.07770000
opls_141-83    C    0.52594985    0.04389993    0.14144955    0.23190000
opls_142-84    C    0.51714011    0.97499002    0.14144955    0.04130000
opls_531-85    C    0.65065004    0.29173995    0.14144955    0.41840000
opls_521-86    C    0.54446003    0.45489988    0.14144955    0.12350000
opls_700-87    C    0.38302985    0.52726992    0.14144955    0.02950000
opls_522-88    C    0.41189015    0.50882003    0.14144955    -0.13070000
opls_608-89    C    0.33603005    0.49674008    0.14144955    0.04170000
opls_145-90    C    0.30714997    0.50578015    0.14144955    -0.08250000
opls_145-91    C    0.26015002    0.47525000    0.14144955    -0.08130000
opls_145-92    C    0.24203996    0.43568011    0.14144955    -0.12950000
opls_145-93    C    0.27092996    0.42664005    0.14144955    -0.08130000
opls_145-94    C    0.31791984    0.45716988    0.14144955    -0.08250000
opls_143-95    C    0.92987002    0.54800994    0.14144955    0.00610000
opls_700-96    C    0.24649002    0.61328010    0.14144955    -0.00600000
opls_523-97    C    0.21982009    0.62959997    0.14144955    -0.08480000
opls_700-98    C    0.17693013    0.60324007    0.14144955    0.01430000
opls_521-99    C    0.16015014    0.56010010    0.14144955    0.25260000
opls_522-100    C    0.18673986    0.54381988    0.14144955    -0.11560000
opls_523-101    C    0.22962996    0.57019991    0.14144955    -0.07770000
opls_141-102    C    0.95610011    0.48205010    0.14144955    0.23190000
opls_142-103    C    0.02501014    0.54215005    0.14144955    0.04130000
opls_531-104    C    0.70826012    0.35891004    0.14144955    0.41860000
opls_521-105    C    0.54510002    0.08956012    0.14144955    0.12350000
opls_700-106    C    0.47272999    0.85576006    0.14144955    0.02950000
opls_522-107    C    0.49118005    0.90306995    0.14144955    -0.13070000
opls_608-108    C    0.50326007    0.83929000    0.14144955    0.04170000
opls_145-109    C    0.49422018    0.80137012    0.14144955    -0.08250000
opls_145-110    C    0.52475000    0.78490005    0.14144955    -0.08130000
opls_145-111    C    0.56431999    0.80636010    0.14144955    -0.12950000
opls_145-112    C    0.57336001    0.84428989    0.14144955    -0.08120000
opls_145-113    C    0.54283006    0.86075004    0.14144955    -0.08250000
MOF2_O_3-114    O    0.52623005    0.54397999    0.14144955    -0.06570000
opls_180-115    O    0.55754998    0.58597999    0.14144955    -0.11340000
MOF2_O_3-116    O    0.45601996    0.98225000    0.14144955    -0.06570000
opls_180-117    O    0.41401984    0.97156984    0.14144955    -0.11340000
MOF2_O_3-118    O    0.01774999    0.47377001    0.14144955    -0.06570000
opls_180-119    O    0.02843003    0.44244986    0.14144955    -0.11340000
MOF2_O_3-120    O    0.47376995    0.45602001    0.14144955    -0.06570000
opls_180-121    O    0.44245002    0.41402001    0.14144955    -0.11340000
MOF2_O_3-122    O    0.54398004    0.01775000    0.14144955    -0.06560000
opls_180-123    O    0.58598001    0.02842985    0.14144955    -0.11340000
MOF2_O_3-124    O    0.98225001    0.52622999    0.14144955    -0.06570000
opls_180-125    O    0.97156997    0.55755014    0.14144955    -0.11340000
opls_520-126    N    0.31740001    0.62529997    0.14144955    -0.36640000
opls_520-127    N    0.11638996    0.53222986    0.14144955    -0.25230000
opls_520-128    N    0.37470008    0.69209999    0.14144955    -0.36640000
opls_520-129    N    0.46776985    0.58415996    0.14144955    -0.25220000
opls_520-130    N    0.30789991    0.68260004    0.14144955    -0.36640000
opls_520-131    N    0.41584003    0.88360987    0.14144955    -0.25230000
opls_520-132    N    0.68259999    0.37470003    0.14144955    -0.36640000
opls_520-133    N    0.88361004    0.46777014    0.14144955    -0.25230000
opls_520-134    N    0.62529992    0.30790001    0.14144955    -0.36630000
opls_520-135    N    0.53223015    0.41584004    0.14144955    -0.25230000
opls_520-136    N    0.69210009    0.31739996    0.14144955    -0.36630000
opls_520-137    N    0.58415997    0.11639013    0.14144955    -0.25230000
opls_144-138    H    0.51501007    0.61091007    0.08188068    0.02440000
opls_144-139    H    0.57330985    0.65134988    0.20102125    0.02440000
opls_526-140    H    0.66457005    0.43146992    0.14144955    0.04840000
opls_525-141    H    0.50885000    0.33538996    0.14144955    0.04840000
opls_526-142    H    0.55672987    0.30556993    0.14144955    0.04840000
opls_144-143    H    0.57708015    0.53014009    0.14144955    0.02610000
opls_525-144    H    0.92443007    0.39823002    0.14144955    0.04840000
opls_146-145    H    0.77562987    0.31520985    0.14144955    0.04840000
opls_146-146    H    0.75011003    0.23755006    0.14144955    0.04840000
opls_146-147    H    0.79021990    0.20677991    0.14144955    0.04840000
opls_146-148    H    0.87002996    0.26287994    0.14144955    0.04840000
opls_146-149    H    0.89553989    0.34051992    0.14144955    0.04840000
opls_144-150    H    0.38909006    0.90409997    0.08188068    0.02440000
opls_144-151    H    0.34865003    0.92195000    0.20102125    0.02440000
opls_526-152    H    0.56853003    0.23308995    0.14144955    0.04840000
opls_525-153    H    0.66461001    0.17346011    0.14144955    0.04840000
opls_526-154    H    0.69442998    0.25115985    0.14144955    0.04840000
opls_144-155    H    0.46985999    0.04692991    0.14144955    0.02610000
opls_525-156    H    0.60176988    0.52619995    0.14144955    0.04840000
opls_146-157    H    0.68479015    0.46042004    0.14144955    0.04840000
opls_146-158    H    0.76245018    0.51256011    0.14144955    0.04840000
opls_146-159    H    0.79321999    0.58343994    0.14144955    0.04850000
opls_146-160    H    0.73712015    0.60716008    0.14144955    0.04780000
opls_146-161    H    0.65947996    0.55502000    0.14144955    0.04840000
opls_144-162    H    0.09589987    0.48498996    0.08188068    0.02440000
opls_144-163    H    0.07805003    0.42668991    0.20102125    0.02440000
opls_526-164    H    0.76690983    0.33542991    0.14144955    0.04840000
opls_525-165    H    0.82653999    0.49114993    0.14144955    0.04840000
opls_526-166    H    0.74884000    0.44326991    0.14144955    0.04840000
opls_144-167    H    0.95306992    0.42292009    0.14144955    0.02610000
opls_525-168    H    0.47380005    0.07557003    0.14144955    0.04840000
opls_146-169    H    0.53957998    0.22437011    0.14144955    0.04840000
opls_146-170    H    0.48743994    0.24989014    0.14144955    0.04840000
opls_146-171    H    0.41656011    0.20978015    0.14144955    0.04840000
opls_146-172    H    0.39283983    0.12996989    0.14144955    0.04840000
opls_146-173    H    0.44498015    0.10446008    0.14144955    0.04840000
opls_144-174    H    0.48498993    0.38908993    0.08188068    0.02440000
opls_144-175    H    0.42669015    0.34865012    0.20102125    0.02450000
opls_526-176    H    0.33542995    0.56853008    0.14144955    0.04840000
opls_525-177    H    0.49115000    0.66461004    0.14144955    0.04840000
opls_526-178    H    0.44327013    0.69443007    0.14144955    0.04840000
opls_144-179    H    0.42291985    0.46985991    0.14144955    0.02610000
opls_525-180    H    0.07556993    0.60176998    0.14144955    0.04840000
opls_146-181    H    0.22437013    0.68479015    0.14144955    0.04840000
opls_146-182    H    0.24988997    0.76244994    0.14144955    0.04840000
opls_146-183    H    0.20978010    0.79322009    0.14144955    0.04840000
opls_146-184    H    0.12997004    0.73712006    0.14144955    0.04840000
opls_146-185    H    0.10446011    0.65948008    0.14144955    0.04840000
opls_144-186    H    0.61090994    0.09590003    0.08188068    0.02440000
opls_144-187    H    0.65134997    0.07805000    0.20102125    0.02440000
opls_526-188    H    0.43146997    0.76691005    0.14144955    0.04840000
opls_525-189    H    0.33538999    0.82653989    0.14144955    0.04840000
opls_526-190    H    0.30557002    0.74884015    0.14144955    0.04840000
opls_144-191    H    0.53014001    0.95307009    0.14144955    0.02610000
opls_525-192    H    0.39823012    0.47380005    0.14144955    0.04840000
opls_146-193    H    0.31520985    0.53957996    0.14144955    0.04850000
opls_146-194    H    0.23754982    0.48743989    0.14144955    0.04840000
opls_146-195    H    0.20678001    0.41656006    0.14144955    0.04840000
opls_146-196    H    0.26287985    0.39283992    0.14144955    0.04780000
opls_146-197    H    0.34052004    0.44498000    0.14144955    0.04840000
opls_144-198    H    0.90410013    0.51501004    0.08188068    0.02440000
opls_144-199    H    0.92194997    0.57331009    0.20102125    0.02440000
opls_526-200    H    0.23309017    0.66457009    0.14144955    0.04840000
opls_525-201    H    0.17346001    0.50885007    0.14144955    0.04840000
opls_526-202    H    0.25116000    0.55673009    0.14144955    0.04840000
opls_144-203    H    0.04693008    0.57707991    0.14144955    0.02610000
opls_525-204    H    0.52619995    0.92442997    0.14144955    0.04840000
opls_146-205    H    0.46042002    0.77562989    0.14144955    0.04840000
opls_146-206    H    0.51256006    0.75010986    0.14144955    0.04840000
opls_146-207    H    0.58343989    0.79021985    0.14144955    0.04840000
opls_146-208    H    0.60716017    0.87003011    0.14144955    0.04840000
opls_146-209    H    0.55501985    0.89553992    0.14144955    0.04840000
