#======================================================================
# Crystal Data Generated By AuToFF
#----------------------------------------------------------------------

data_AuToFF_phase_1

_cell_length_a                         50.7000
_cell_length_b                         50.0000
_cell_length_c                         19.4000
_cell_angle_alpha                      144.10
_cell_angle_beta                       88.30
_cell_angle_gamma                      90.80
_symmetry_space_group_name_H-M_alt     'P 1'
_symmetry_space_group_IT_number        1

loop_
_space_group_symop_operation_xyz
   'x, y, z'

loop_
   _atom_site_label
   _atom_site_type_symbol
   _atom_site_fract_x
   _atom_site_fract_y
   _atom_site_fract_z
   _atom_site_charge
opls_700-0    C    0.26324001    0.81355971    0.53396951    0.06380000
opls_700-1    C    0.25714997    0.21671994    0.69298024    0.06950000
opls_700-2    C    0.68847998    0.37634982    0.44132963    0.06830000
opls_145-3    C    0.27255995    0.85362995    0.58643014    -0.12320000
opls_145-4    C    0.25937993    0.87315981    0.57214964    -0.12330000
opls_700-5    C    0.23657000    0.85316980    0.50552988    0.06260000
opls_145-6    C    0.22603992    0.81529980    0.46107977    -0.13200000
opls_145-7    C    0.23931988    0.79555989    0.47491964    -0.13330000
opls_145-8    C    0.71401994    0.39190982    0.48550974    -0.12340000
opls_145-9    C    0.72752002    0.37787985    0.51439000    -0.12210000
opls_700-10    C    0.71580999    0.34804991    0.50007960    0.05940000
opls_145-11    C    0.69015991    0.33281990    0.45707011    -0.13400000
opls_145-12    C    0.67666995    0.34672987    0.42756980    -0.12970000
opls_700-13    C    0.68411009    0.69256003    0.00035004    0.06950000
opls_145-14    C    0.71056983    0.68038981    0.96016992    -0.12260000
opls_145-15    C    0.72289998    0.69348977    0.92556937    -0.12530000
opls_700-16    C    0.70898992    0.71843973    0.92818941    0.06570000
opls_145-17    C    0.68255985    0.73105973    0.96968967    -0.13620000
opls_145-18    C    0.67038008    0.71869977    0.00670973    -0.12970000
opls_145-19    C    0.22947990    0.21701989    0.69320979    -0.12530000
opls_145-20    C    0.21480987    0.20197990    0.71923958    -0.12970000
opls_700-21    C    0.22748998    0.18578993    0.74433973    0.06570000
opls_145-22    C    0.25521003    0.18589988    0.74506972    -0.13600000
opls_145-23    C    0.26986984    0.20115980    0.71952982    -0.12820000
opls_182-24    C    0.46708985    0.43900977    0.88304977    -0.02090000
opls_182-25    C    0.49708988    0.43464986    0.87410961    -0.01120000
opls_182-26    C    0.48985995    0.51874979    0.24367967    -0.01850000
opls_182-27    C    0.47064004    0.55573976    0.34909961    -0.02430000
opls_700-28    C    0.61021008    0.43961984    0.10223966    0.08620000
opls_700-29    C    0.61262008    0.48703983    0.18938967    0.03260000
opls_700-30    C    0.59895003    0.50755997    0.17743018    -0.07190000
opls_166-31    C    0.58356996    0.48070009    0.07844029    0.20380000
opls_145-32    C    0.58203984    0.43363999    0.99124014    -0.20400000
opls_145-33    C    0.59501001    0.41327001    0.00351010    -0.12150000
opls_145-34    C    0.62306003    0.41912982    0.11485965    -0.18010000
opls_700-35    C    0.63888992    0.44495998    0.21186011    0.05920000
opls_145-36    C    0.64184990    0.49160991    0.29587997    -0.12420000
opls_145-37    C    0.62880990    0.51249994    0.28544026    -0.12770000
opls_700-38    C    0.59857992    0.55761998    0.27152035    -0.07410000
opls_700-39    C    0.61106006    0.57780975    0.25532957    0.03080000
opls_700-40    C    0.60816996    0.62537988    0.34406005    0.08670000
opls_145-41    C    0.59408005    0.65227995    0.44902001    -0.12320000
opls_145-42    C    0.58247997    0.63225987    0.46567957    -0.23620000
opls_166-43    C    0.58391997    0.58487997    0.37605024    0.20510000
opls_145-44    C    0.61963004    0.64553994    0.32722020    -0.17350000
opls_700-45    C    0.63496992    0.61936993    0.22518986    0.05940000
opls_145-46    C    0.63845005    0.57253984    0.13925972    -0.12420000
opls_145-47    C    0.62651005    0.55187014    0.15340038    -0.13090000
opls_700-48    C    0.41114998    0.58284999    0.16978993    0.08670000
opls_700-49    C    0.40483006    0.56051998    0.18616013    0.02860000
opls_700-50    C    0.42119006    0.52414003    0.13235034    -0.07060000
opls_166-51    C    0.44279001    0.50902995    0.05912023    0.20260000
opls_145-52    C    0.44940993    0.53287999    0.04826012    -0.21740000
opls_145-53    C    0.43360996    0.56920992    0.10215962    -0.12320000
opls_145-54    C    0.39492005    0.61855988    0.22132005    -0.16630000
opls_700-55    C    0.37211006    0.63183974    0.28721949    0.06890000
opls_145-56    C    0.36586992    0.60978987    0.30339972    -0.12430000
opls_145-57    C    0.38215995    0.57486986    0.25470952    -0.13640000
opls_700-58    C    0.41617997    0.50118974    0.15147954    -0.07400000
opls_700-59    C    0.39754999    0.46603998    0.08523006    0.03040000
opls_700-60    C    0.39294001    0.44610010    0.10927041    0.08620000
opls_145-61    C    0.40735009    0.46036990    0.19560952    -0.12810000
opls_145-62    C    0.42565998    0.49516983    0.26078953    -0.22500000
opls_166-63    C    0.43008001    0.51601975    0.23986966    0.20360000
opls_145-64    C    0.37336996    0.41318989    0.04931992    -0.18620000
opls_700-65    C    0.35801996    0.40003989    0.96616989    0.06180000
opls_145-66    C    0.36326996    0.41882980    0.93998971    -0.12310000
opls_145-67    C    0.38284984    0.45122991    0.99816008    -0.13600000
opls_182-68    C    0.52798991    0.53386977    0.33690969    -0.02070000
opls_182-69    C    0.54523992    0.57587006    0.43210012    -0.02350000
opls_182-70    C    0.53623999    0.47357977    0.93715947    -0.01620000
opls_182-71    C    0.54300008    0.49563002    0.05164005    -0.02090000
opls_700-72    C    0.65194996    0.42370995    0.22723999    0.06040000
opls_700-73    C    0.64745005    0.64074987    0.20808000    0.05920000
opls_700-74    C    0.35445999    0.66800987    0.33652974    0.06890000
opls_700-75    C    0.33550996    0.36887968    0.91180953    0.06600000
opls_145-76    C    0.32758003    0.65961001    0.31071016    -0.12310000
opls_145-77    C    0.31127001    0.69257999    0.34976012    -0.12210000
opls_700-78    C    0.32148007    0.73473983    0.41724970    0.09400000
opls_145-79    C    0.34816003    0.74368003    0.44647033    -0.12260000
opls_145-80    C    0.36456996    0.71043980    0.40570974    -0.12290000
opls_145-81    C    0.32994990    0.33545981    0.79256995    -0.13710000
opls_145-82    C    0.30766984    0.30829982    0.74415944    -0.13500000
opls_700-83    C    0.29066989    0.31402990    0.81397004    0.09790000
opls_145-84    C    0.29640995    0.34674985    0.93227998    -0.12770000
opls_145-85    C    0.31858991    0.37395969    0.98082946    -0.13400000
opls_145-86    C    0.63848992    0.39231991    0.20400966    -0.13310000
opls_145-87    C    0.65031996    0.37429004    0.22486005    -0.12310000
opls_700-88    C    0.67571992    0.38750983    0.26975959    0.09400000
opls_145-89    C    0.68930995    0.41833010    0.29155017    -0.12430000
opls_145-90    C    0.67763007    0.43603992    0.26974991    -0.12320000
opls_145-91    C    0.67342991    0.62874996    0.16232031    -0.12320000
opls_145-92    C    0.68494997    0.64762979    0.14230984    -0.12430000
opls_700-93    C    0.67085002    0.67917002    0.16873013    0.09420000
opls_145-94    C    0.64504993    0.69171992    0.21580996    -0.12310000
opls_145-95    C    0.63339998    0.67262974    0.23527953    -0.13330000
opls_149-96    C    0.30489003    0.76799002    0.44680015    -0.24530000
opls_701-97    C    0.28038995    0.78690995    0.52719997    -0.04000000
opls_423-98    C    0.28786997    0.81588969    0.64594967    0.23390000
opls_149-99    C    0.26625989    0.28580000    0.76292013    -0.24330000
opls_701-100    C    0.27303984    0.23473004    0.66950013    -0.03830000
opls_423-101    C    0.26843991    0.20676974    0.54944965    0.23390000
opls_149-102    C    0.68293009    0.69759981    0.14114978    -0.24310000
opls_701-103    C    0.67039000    0.67663000    0.03288992    -0.05330000
opls_423-104    C    0.67119001    0.62637975    0.93007946    0.25990000
opls_149-105    C    0.68793999    0.37031971    0.29910950    -0.24330000
opls_701-106    C    0.67409992    0.39076987    0.40751008    -0.05330000
opls_423-107    C    0.67238992    0.44093993    0.50920972    0.23700000
opls_700-108    C    0.76232001    0.29989975    0.56776971    0.06910000
opls_700-109    C    0.75099992    0.75941983    0.82791984    0.06830000
opls_700-110    C    0.20397995    0.90607994    0.42942995    0.06980000
opls_145-111    C    0.76216990    0.34623971    0.64635951    -0.12970000
opls_145-112    C    0.74671995    0.36200999    0.62553023    -0.13200000
opls_700-113    C    0.73078997    0.33191987    0.52661950    0.06250000
opls_145-114    C    0.73027000    0.28587991    0.45023988    -0.13090000
opls_145-115    C    0.74595997    0.26999994    0.47039987    -0.13080000
opls_145-116    C    0.23114002    0.89657983    0.41337989    -0.12770000
opls_145-117    C    0.24158991    0.87942994    0.43823994    -0.12770000
opls_700-118    C    0.22503994    0.87010989    0.47626967    0.06190000
opls_145-119    C    0.19773000    0.87684989    0.48512979    -0.12990000
opls_145-120    C    0.18731992    0.89554984    0.46421959    -0.13600000
opls_700-121    C    0.18270990    0.13732996    0.82013008    0.07450000
opls_145-122    C    0.20687990    0.11640994    0.75660001    -0.12320000
opls_145-123    C    0.22115999    0.13164984    0.73049987    -0.12450000
opls_700-124    C    0.21191994    0.16889988    0.76976003    0.06420000
opls_145-125    C    0.18778991    0.18995990    0.83396995    -0.13200000
opls_145-126    C    0.17334987    0.17429986    0.85875964    -0.12210000
opls_145-127    C    0.73098000    0.78758992    0.91603995    -0.13200000
opls_145-128    C    0.71682993    0.77388988    0.94668009    -0.13460000
opls_700-129    C    0.72228993    0.73156974    0.88920981    0.06570000
opls_145-130    C    0.74143001    0.70247999    0.79686017    -0.12970000
opls_145-131    C    0.75570988    0.71632993    0.76705995    -0.12320000
opls_182-132    C    0.96710000    0.93488971    0.72707948    -0.02350000
opls_182-133    C    0.99096988    0.96343971    0.80536937    -0.02380000
opls_182-134    C    0.97649993    0.05965008    0.26434009    -0.01460000
opls_182-135    C    0.96803993    0.05648998    0.18259990    -0.02350000
opls_700-136    C    0.09458008    0.94864996    0.08720982    0.08620000
opls_700-137    C    0.09640994    0.99529977    0.16668968    0.03150000
opls_700-138    C    0.08185994    0.01250977    0.14701958    -0.07030000
opls_166-139    C    0.06592993    0.98340002    0.04831025    0.20310000
opls_145-140    C    0.06446984    0.93712974    0.96979961    -0.23590000
opls_145-141    C    0.07834994    0.92007980    0.99006952    -0.12530000
opls_145-142    C    0.10970006    0.93091003    0.10379022    -0.18690000
opls_700-143    C    0.12714004    0.95889994    0.19724012    0.06630000
opls_145-144    C    0.12884003    0.00487988    0.27488973    -0.13880000
opls_145-145    C    0.11351999    0.02310977    0.26121961    -0.12680000
opls_700-146    C    0.08385988    0.06074996    0.22599021    -0.06590000
opls_700-147    C    0.09892998    0.07315002    0.19253038    0.03080000
opls_700-148    C    0.09920005    0.11936997    0.26804983    0.08670000
opls_145-149    C    0.08541002    0.15256999    0.37684003    -0.12310000
opls_145-150    C    0.07130000    0.14019014    0.41080030    -0.21150000
opls_166-151    C    0.07005001    0.09438997    0.33522016    0.20170000
opls_145-152    C    0.11347989    0.13185987    0.23423995    -0.16630000
opls_700-153    C    0.12834005    0.09918990    0.12795986    0.06970000
opls_145-154    C    0.12887006    0.05383014    0.05577020    -0.12710000
opls_145-155    C    0.11409994    0.04075994    0.08655987    -0.12450000
opls_700-156    C    0.90113007    0.06672993    0.05123988    0.08620000
opls_700-157    C    0.90531007    0.04283010    0.06361010    0.02280000
opls_700-158    C    0.92064992    0.00196987    0.97668964    -0.07480000
opls_166-159    C    0.93159994    0.98526973    0.87878945    0.21140000
opls_145-160    C    0.92720996    0.00958974    0.86832951    -0.23030000
opls_145-161    C    0.91227995    0.05001993    0.95406968    -0.12340000
opls_145-162    C    0.88570001    0.10692004    0.13579008    -0.18690000
opls_700-163    C    0.87434997    0.12399997    0.23350997    0.05940000
opls_145-164    C    0.87873000    0.10048974    0.24608951    -0.12340000
opls_145-165    C    0.89396998    0.06041999    0.16241002    -0.13610000
opls_700-166    C    0.92622992    0.97633988    0.98716980    -0.08230000
opls_700-167    C    0.90736994    0.94733983    0.95824996    0.02300000
opls_700-168    C    0.91427989    0.92202971    0.96468969    0.08670000
opls_145-169    C    0.93964987    0.92523977    0.99749957    -0.12420000
opls_145-170    C    0.95795006    0.95423995    0.02696030    -0.20280000
opls_166-171    C    0.95116002    0.98071974    0.02551968    0.20040000
opls_145-172    C    0.89570992    0.89396961    0.93891935    -0.18390000
opls_700-173    C    0.87005992    0.89112969    0.90842960    0.06890000
opls_145-174    C    0.86322985    0.91588977    0.90133992    -0.12330000
opls_145-175    C    0.88171983    0.94328970    0.92452980    -0.13640000
opls_182-176    C    0.01263003    0.05218991    0.31982973    -0.02050000
opls_182-177    C    0.02947993    0.09502984    0.40419963    -0.02280000
opls_182-178    C    0.03180994    0.96064980    0.85224955    -0.01380000
opls_182-179    C    0.02913987    0.98455988    0.97205993    -0.02190000
opls_700-180    C    0.14396992    0.94046003    0.21375016    0.05920000
opls_700-181    C    0.14269008    0.11197991    0.09025994    0.06630000
opls_700-182    C    0.85776995    0.16619982    0.32204960    0.06220000
opls_700-183    C    0.85028998    0.86329979    0.88767947    0.06960000
opls_145-184    C    0.83880993    0.17319004    0.28614034    -0.13600000
opls_145-185    C    0.82317993    0.21293988    0.36962986    -0.13220000
opls_700-186    C    0.82631996    0.24641000    0.49025994    0.09690000
opls_145-187    C    0.84513988    0.23950973    0.52650956    -0.13200000
opls_145-188    C    0.86069989    0.19967003    0.44310007    -0.13670000
opls_145-189    C    0.82585990    0.88261973    0.94920955    -0.12320000
opls_145-190    C    0.80808001    0.85754991    0.93741013    -0.12310000
opls_700-191    C    0.81425999    0.81253982    0.86224951    0.09650000
opls_145-192    C    0.83834002    0.79277973    0.79800968    -0.12260000
opls_145-193    C    0.85628001    0.81804999    0.81110022    -0.12150000
opls_145-194    C    0.13370993    0.91023972    0.20030959    -0.12770000
opls_145-195    C    0.14954005    0.89386990    0.21883985    -0.12310000
opls_700-196    C    0.17587000    0.90725976    0.25040963    0.09400000
opls_145-197    C    0.18619990    0.93718005    0.26320025    -0.12310000
opls_145-198    C    0.17035999    0.95390996    0.24583005    -0.12990000
opls_145-199    C    0.16843997    0.09540004    0.04161987    -0.13200000
opls_145-200    C    0.18109998    0.10446996    0.99718999    -0.12340000
opls_700-201    C    0.16840992    0.13096013    0.00280034    0.09420000
opls_145-202    C    0.14302006    0.14867997    0.05458991    -0.12290000
opls_145-203    C    0.13016005    0.13893997    0.09706026    -0.12340000
opls_149-204    C    0.81007994    0.28982983    0.57930968    -0.24220000
opls_701-205    C    0.78070000    0.28197992    0.58457966    -0.04010000
opls_423-206    C    0.77400991    0.30372975    0.69699957    0.23390000
opls_149-207    C    0.79629993    0.78707979    0.85828998    -0.24460000
opls_701-208    C    0.76899998    0.77735969    0.80833945    -0.04470000
opls_423-209    C    0.77113001    0.74468982    0.68223007    0.23390000
opls_149-210    C    0.18234985    0.14184989    0.95808989    -0.24350000
opls_701-211    C    0.16802988    0.12325976    0.85613959    -0.04460000
opls_423-212    C    0.16530994    0.07334976    0.75509958    0.25990000
opls_149-213    C    0.19262995    0.89104970    0.27475957    -0.24550000
opls_701-214    C    0.19268989    0.92670976    0.40808967    -0.04000000
opls_423-215    C    0.20769998    0.96733980    0.47213952    0.23300000
opls_700-216    C    0.26324011    0.81355984    0.03396995    0.06380000
opls_700-217    C    0.25715007    0.21672000    0.19297980    0.06950000
opls_700-218    C    0.68847988    0.37634996    0.94133007    0.06830000
opls_145-219    C    0.27256005    0.85362982    0.08642970    -0.12320000
opls_145-220    C    0.25938002    0.87315995    0.07215008    -0.12330000
opls_700-221    C    0.23657009    0.85316994    0.00553032    0.06260000
opls_145-222    C    0.22604001    0.81529993    0.96108021    -0.13200000
opls_145-223    C    0.23931997    0.79555983    0.97492008    -0.13330000
opls_145-224    C    0.71401983    0.39190996    0.98551018    -0.12340000
opls_145-225    C    0.72751992    0.37787992    0.01438956    -0.12210000
opls_700-226    C    0.71581008    0.34805004    0.00008003    0.05940000
opls_145-227    C    0.69016001    0.33281977    0.95706967    -0.13400000
opls_145-228    C    0.67666985    0.34672973    0.92756936    -0.12970000
opls_700-229    C    0.68410999    0.69255969    0.50034960    0.06950000
opls_145-230    C    0.71056993    0.68038967    0.46016948    -0.12260000
opls_145-231    C    0.72289988    0.69348991    0.42556981    -0.12530000
opls_700-232    C    0.70899002    0.71843987    0.42818985    0.06570000
opls_145-233    C    0.68255995    0.73105987    0.46969011    -0.13640000
opls_145-234    C    0.67037997    0.71869991    0.50671017    -0.12970000
opls_145-235    C    0.22947999    0.21702002    0.19321023    -0.12530000
opls_145-236    C    0.21480996    0.20198003    0.21924002    -0.12970000
opls_700-237    C    0.22749008    0.18579007    0.24434017    0.06570000
opls_145-238    C    0.25520993    0.18590002    0.24507016    -0.13600000
opls_145-239    C    0.26986993    0.20116014    0.21953026    -0.12820000
opls_182-240    C    0.46708995    0.43900991    0.38305021    -0.02090000
opls_182-241    C    0.49708998    0.43464999    0.37411005    -0.01120000
opls_182-242    C    0.48985985    0.51874993    0.74368011    -0.01850000
opls_182-243    C    0.47063994    0.55573989    0.84910005    -0.02430000
opls_700-244    C    0.61020998    0.43961998    0.60224010    0.08620000
opls_700-245    C    0.61261998    0.48703997    0.68939011    0.03260000
opls_700-246    C    0.59894993    0.50755983    0.67742974    -0.07190000
opls_166-247    C    0.58356986    0.48069995    0.57843985    0.20380000
opls_145-248    C    0.58203994    0.43363985    0.49123970    -0.20400000
opls_145-249    C    0.59500992    0.41326987    0.50350966    -0.12150000
opls_145-250    C    0.62305993    0.41912996    0.61486009    -0.18010000
opls_700-251    C    0.63889003    0.44495984    0.71185967    0.05920000
opls_145-252    C    0.64185000    0.49160977    0.79587953    -0.12420000
opls_145-253    C    0.62881000    0.51249980    0.78543982    -0.12770000
opls_700-254    C    0.59858002    0.55761984    0.77151991    -0.07410000
opls_700-255    C    0.61105996    0.57780989    0.75533001    0.02960000
opls_700-256    C    0.60816987    0.62537974    0.84405961    0.08670000
opls_145-257    C    0.59407996    0.65227982    0.94901957    -0.12310000
opls_145-258    C    0.58247986    0.63225981    0.96568001    -0.23620000
opls_166-259    C    0.58391987    0.58487983    0.87604980    0.20510000
opls_145-260    C    0.61962994    0.64553980    0.82721976    -0.16630000
opls_700-261    C    0.63497002    0.61936979    0.72518942    0.05940000
opls_145-262    C    0.63844995    0.57253997    0.63926016    -0.12420000
opls_145-263    C    0.62650995    0.55186980    0.65339994    -0.13090000
opls_700-264    C    0.41114989    0.58284965    0.66978949    0.08670000
opls_700-265    C    0.40482996    0.56051984    0.68615969    0.02860000
opls_700-266    C    0.42118996    0.52413989    0.63234990    -0.07060000
opls_166-267    C    0.44278991    0.50902981    0.55911979    0.20260000
opls_145-268    C    0.44941004    0.53287985    0.54825968    -0.21750000
opls_145-269    C    0.43360986    0.56920986    0.60216006    -0.12320000
opls_145-270    C    0.39491995    0.61855974    0.72131961    -0.16630000
opls_700-271    C    0.37210996    0.63183988    0.78721993    0.06890000
opls_145-272    C    0.36587001    0.60979001    0.80340016    -0.12430000
opls_145-273    C    0.38215984    0.57486980    0.75470996    -0.13640000
opls_700-274    C    0.41617987    0.50118988    0.65147998    -0.07400000
opls_700-275    C    0.39754990    0.46603984    0.58522962    0.03040000
opls_700-276    C    0.39293992    0.44609996    0.60926997    0.08620000
opls_145-277    C    0.40734999    0.46036984    0.69560996    -0.12820000
opls_145-278    C    0.42565987    0.49516997    0.76078997    -0.22500000
opls_166-279    C    0.43007991    0.51601989    0.73987010    0.20360000
opls_145-280    C    0.37336986    0.41318975    0.54931948    -0.18620000
opls_700-281    C    0.35802006    0.40003976    0.46616945    0.06180000
opls_145-282    C    0.36327006    0.41882994    0.43999015    -0.12310000
opls_145-283    C    0.38284994    0.45122977    0.49815964    -0.13600000
opls_182-284    C    0.52799000    0.53386991    0.83691013    -0.02070000
opls_182-285    C    0.54523982    0.57586972    0.93209968    -0.02350000
opls_182-286    C    0.53623989    0.47357991    0.43715991    -0.01620000
opls_182-287    C    0.54299998    0.49562989    0.55163961    -0.02090000
opls_700-288    C    0.65194986    0.42370981    0.72723955    0.06040000
opls_700-289    C    0.64744996    0.64074973    0.70807956    0.05920000
opls_700-290    C    0.35445989    0.66801001    0.83653018    0.06650000
opls_700-291    C    0.33551006    0.36888002    0.41180997    0.06600000
opls_145-292    C    0.32757993    0.65960987    0.81070972    -0.12320000
opls_145-293    C    0.31126992    0.69257986    0.84975968    -0.12200000
opls_700-294    C    0.32147997    0.73473997    0.91725014    0.09400000
opls_145-295    C    0.34815993    0.74367989    0.94646989    -0.12210000
opls_145-296    C    0.36456986    0.71043994    0.90571018    -0.12290000
opls_145-297    C    0.32995001    0.33545987    0.29256951    -0.13710000
opls_145-298    C    0.30766994    0.30829996    0.24415988    -0.13500000
opls_700-299    C    0.29066999    0.31402976    0.31396960    0.09790000
opls_145-300    C    0.29641005    0.34674971    0.43227954    -0.12770000
opls_145-301    C    0.31859000    0.37395983    0.48082990    -0.13400000
opls_145-302    C    0.63849001    0.39232005    0.70401010    -0.13310000
opls_145-303    C    0.65031986    0.37428970    0.72485961    -0.12310000
opls_700-304    C    0.67572001    0.38750997    0.76976003    0.09400000
opls_145-305    C    0.68930985    0.41832976    0.79154973    -0.12430000
opls_145-306    C    0.67762998    0.43603978    0.76974947    -0.12320000
opls_145-307    C    0.67343001    0.62874982    0.66231987    -0.12320000
opls_145-308    C    0.68494986    0.64762993    0.64231028    -0.12430000
opls_700-309    C    0.67084993    0.67916988    0.66872969    0.09420000
opls_145-310    C    0.64505003    0.69171979    0.71580952    -0.12310000
opls_145-311    C    0.63339988    0.67262988    0.73527997    -0.13320000
opls_149-312    C    0.30488994    0.76798988    0.94679971    -0.24530000
opls_701-313    C    0.28039004    0.78691009    0.02720041    -0.04000000
opls_423-314    C    0.28787007    0.81589003    0.14595011    0.23390000
opls_149-315    C    0.26625999    0.28579986    0.26291969    -0.24340000
opls_701-316    C    0.27303994    0.23472990    0.16949969    -0.03830000
opls_423-317    C    0.26844000    0.20677008    0.04945009    0.23390000
opls_149-318    C    0.68292999    0.69759994    0.64115021    -0.24310000
opls_701-319    C    0.67038990    0.67662966    0.53288948    -0.05330000
opls_423-320    C    0.67118990    0.62637989    0.43007990    0.25980000
opls_149-321    C    0.68793989    0.37031984    0.79910994    -0.24330000
opls_701-322    C    0.67409983    0.39076974    0.90750964    -0.05330000
opls_423-323    C    0.67239002    0.44094007    0.00921016    0.23700000
opls_700-324    C    0.76231991    0.29990009    0.06777015    0.06910000
opls_700-325    C    0.75100001    0.75941997    0.32792028    0.06830000
opls_700-326    C    0.20397986    0.90607980    0.92942951    0.06980000
opls_145-327    C    0.76217000    0.34624005    0.14635995    -0.12970000
opls_145-328    C    0.74672005    0.36200985    0.12552979    -0.13200000
opls_700-329    C    0.73079006    0.33192001    0.02661994    0.06250000
opls_145-330    C    0.73026991    0.28587977    0.95023944    -0.13090000
opls_145-331    C    0.74595987    0.26999980    0.97039943    -0.13080000
opls_145-332    C    0.23113992    0.89657969    0.91337945    -0.12770000
opls_145-333    C    0.24159002    0.87942981    0.93823950    -0.12770000
opls_700-334    C    0.22503983    0.87010983    0.97627011    0.06190000
opls_145-335    C    0.19772990    0.87684975    0.98512935    -0.12990000
opls_145-336    C    0.18732001    0.89554978    0.96422003    -0.13600000
opls_700-337    C    0.18271000    0.13732982    0.32012964    0.07450000
opls_145-338    C    0.20688000    0.11640980    0.25659958    -0.12320000
opls_145-339    C    0.22115989    0.13164998    0.23050031    -0.12440000
opls_700-340    C    0.21192004    0.16889974    0.26975959    0.06420000
opls_145-341    C    0.18779001    0.18995977    0.33396951    -0.13200000
opls_145-342    C    0.17334997    0.17429999    0.35876008    -0.12210000
opls_145-343    C    0.73097990    0.78758978    0.41603951    -0.13200000
opls_145-344    C    0.71683003    0.77388974    0.44667965    -0.13460000
opls_700-345    C    0.72229002    0.73157008    0.38921025    0.06570000
opls_145-346    C    0.74142991    0.70247986    0.29685973    -0.12970000
opls_145-347    C    0.75570998    0.71632979    0.26705951    -0.12320000
opls_182-348    C    0.96710009    0.93488985    0.22707992    -0.02350000
opls_182-349    C    0.99096997    0.96343985    0.30536981    -0.02380000
opls_182-350    C    0.97649984    0.05964974    0.76433965    -0.01460000
opls_182-351    C    0.96804003    0.05648984    0.68259946    -0.02350000
opls_700-352    C    0.09457998    0.94864990    0.58721026    0.08620000
opls_700-353    C    0.09641003    0.99529991    0.66669012    0.03150000
opls_700-354    C    0.08185984    0.01250991    0.64702002    -0.07010000
opls_166-355    C    0.06593003    0.98339988    0.54830981    0.20310000
opls_145-356    C    0.06446994    0.93712988    0.46980004    -0.23590000
opls_145-357    C    0.07835004    0.92007994    0.49006996    -0.12530000
opls_145-358    C    0.10969997    0.93090989    0.60378978    -0.18690000
opls_700-359    C    0.12713994    0.95889980    0.69723968    0.06630000
opls_145-360    C    0.12883993    0.00488002    0.77489017    -0.13880000
opls_145-361    C    0.11351989    0.02310991    0.76122005    -0.12680000
opls_700-362    C    0.08385998    0.06074982    0.72598977    -0.06590000
opls_700-363    C    0.09892988    0.07314988    0.69252994    0.03080000
opls_700-364    C    0.09919996    0.11936983    0.76804939    0.08670000
opls_145-365    C    0.08540992    0.15256985    0.87683959    -0.12310000
opls_145-366    C    0.07129991    0.14018980    0.91079986    -0.21150000
opls_166-367    C    0.07004991    0.09438983    0.83521972    0.20180000
opls_145-368    C    0.11347999    0.13185973    0.73423952    -0.16630000
opls_700-369    C    0.12833996    0.09918976    0.62795942    0.06970000
opls_145-370    C    0.12886996    0.05382981    0.55576976    -0.12710000
opls_145-371    C    0.11410004    0.04075980    0.58655943    -0.12440000
opls_700-372    C    0.90112998    0.06672979    0.55123944    0.08620000
opls_700-373    C    0.90530997    0.04282976    0.56360966    0.02280000
opls_700-374    C    0.92065002    0.00197001    0.47669008    -0.07480000
opls_166-375    C    0.93160004    0.98526987    0.37878989    0.21140000
opls_145-376    C    0.92721006    0.00958988    0.36832995    -0.23030000
opls_145-377    C    0.91228005    0.05002007    0.45407012    -0.12340000
opls_145-378    C    0.88569992    0.10691990    0.63578964    -0.18690000
opls_700-379    C    0.87434988    0.12399983    0.73350953    0.05940000
opls_145-380    C    0.87872990    0.10048988    0.74608995    -0.12340000
opls_145-381    C    0.89396988    0.06041985    0.66240958    -0.13610000
opls_700-382    C    0.92623001    0.97634002    0.48717024    -0.08230000
opls_700-383    C    0.90737004    0.94733969    0.45824952    0.02300000
opls_700-384    C    0.91427998    0.92202984    0.46469013    0.08670000
opls_145-385    C    0.93964996    0.92523991    0.49750001    -0.12420000
opls_145-386    C    0.95794996    0.95423982    0.52695986    -0.20290000
opls_166-387    C    0.95115992    0.98071988    0.52552012    0.20040000
opls_145-388    C    0.89571001    0.89396975    0.43891979    -0.18390000
opls_700-389    C    0.87006002    0.89112983    0.40843004    0.06890000
opls_145-390    C    0.86322996    0.91588983    0.40133948    -0.12330000
opls_145-391    C    0.88172004    0.94328973    0.42451968    -0.13640000
opls_182-392    C    0.01262993    0.05219005    0.81983017    -0.02050000
opls_182-393    C    0.02947982    0.09502997    0.90420007    -0.02280000
opls_182-394    C    0.03181004    0.96064994    0.35224999    -0.01380000
opls_182-395    C    0.02913997    0.98455974    0.47205949    -0.02190000
opls_700-396    C    0.14397002    0.94045970    0.71374972    0.05920000
opls_700-397    C    0.14268998    0.11197977    0.59025950    0.06630000
opls_700-398    C    0.85776985    0.16619996    0.82205003    0.06220000
opls_700-399    C    0.85029008    0.86329993    0.38767991    0.06960000
opls_145-400    C    0.83880983    0.17318990    0.78613990    -0.13600000
opls_145-401    C    0.82317983    0.21293974    0.86962942    -0.13220000
opls_700-402    C    0.82631986    0.24640967    0.99025950    0.09690000
opls_145-403    C    0.84513998    0.23951007    0.02651000    -0.13200000
opls_145-404    C    0.86069999    0.19966989    0.94309963    -0.13670000
opls_145-405    C    0.82586000    0.88261987    0.44920999    -0.12320000
opls_145-406    C    0.80807991    0.85754978    0.43740969    -0.12310000
opls_700-407    C    0.81425989    0.81253996    0.36224995    0.09650000
opls_145-408    C    0.83834004    0.79277975    0.29799957    -0.12260000
opls_145-409    C    0.85627991    0.81804985    0.31109978    -0.12260000
opls_145-410    C    0.13371002    0.91023986    0.70031003    -0.12770000
opls_145-411    C    0.14953996    0.89386976    0.71883941    -0.12310000
opls_700-412    C    0.17586990    0.90725990    0.75041007    0.09400000
opls_145-413    C    0.18620001    0.93717991    0.76319981    -0.12310000
opls_145-414    C    0.17035989    0.95390982    0.74582961    -0.12990000
opls_145-415    C    0.16843987    0.09539970    0.54161943    -0.13200000
opls_145-416    C    0.18109988    0.10446983    0.49718955    -0.12340000
opls_700-417    C    0.16841002    0.13095999    0.50279990    0.09420000
opls_145-418    C    0.14301996    0.14867984    0.55458947    -0.12290000
opls_145-419    C    0.13015995    0.13893983    0.59705982    -0.12340000
opls_149-420    C    0.81008004    0.28982997    0.07931012    -0.24210000
opls_701-421    C    0.78070009    0.28198006    0.08458010    -0.04010000
opls_423-422    C    0.77401001    0.30372989    0.19700001    0.23390000
opls_149-423    C    0.79630004    0.78707985    0.35828954    -0.24460000
opls_701-424    C    0.76900008    0.77735983    0.30833989    -0.04470000
opls_423-425    C    0.77112992    0.74468989    0.18222963    0.23400000
opls_149-426    C    0.18234995    0.14184975    0.45808945    -0.24350000
opls_701-427    C    0.16802997    0.12325990    0.35614003    -0.04460000
opls_423-428    C    0.16531003    0.07334990    0.25510002    0.25980000
opls_149-429    C    0.19262985    0.89104984    0.77476001    -0.24550000
opls_701-430    C    0.19268999    0.92670990    0.90809011    -0.04000000
opls_423-431    C    0.20769988    0.96733994    0.97213996    0.23300000
opls_179-432    O    0.45781002    0.47115992    0.00189973    -0.25930000
opls_180-433    O    0.51601005    0.53512980    0.27412984    -0.22220000
opls_179-434    O    0.57229995    0.56411990    0.39124014    -0.23530000
opls_179-435    O    0.44597000    0.55473001    0.31290012    -0.24930000
opls_180-436    O    0.50859984    0.47465992    0.93033012    -0.22630000
opls_179-437    O    0.57103001    0.50105993    0.06485020    -0.23710000
opls_179-438    O    0.94489998    0.94259988    0.78981007    -0.25870000
opls_180-439    O    0.00232990    0.04132995    0.23191982    -0.22670000
opls_179-440    O    0.05687997    0.08216977    0.37149969    -0.23710000
opls_179-441    O    0.96972995    0.01084991    0.06031988    -0.23250000
opls_180-442    O    0.00871986    0.93629991    0.78694993    -0.21970000
opls_179-443    O    0.05459997    0.00053014    0.02372021    -0.24680000
opls_179-444    O    0.45780992    0.47116006    0.50190017    -0.25940000
opls_180-445    O    0.51600995    0.53512966    0.77412940    -0.22220000
opls_179-446    O    0.57229985    0.56411976    0.89123970    -0.23540000
opls_179-447    O    0.44596991    0.55472987    0.81289968    -0.24930000
opls_180-448    O    0.50859994    0.47465979    0.43032968    -0.22630000
opls_179-449    O    0.57102992    0.50105979    0.56484976    -0.23710000
opls_179-450    O    0.94490008    0.94259974    0.28980963    -0.25870000
opls_180-451    O    0.00233000    0.04132981    0.73191938    -0.22670000
opls_179-452    O    0.05687987    0.08216991    0.87150013    -0.23710000
opls_179-453    O    0.96972986    0.01084977    0.56031944    -0.23260000
opls_180-454    O    0.00871996    0.93630004    0.28695037    -0.21980000
opls_179-455    O    0.05459987    0.00052980    0.52371977    -0.24670000
opls_753-456    N    0.29368990    0.83871975    0.73931953    -0.30830000
opls_753-457    N    0.26482988    0.18495984    0.45534980    -0.30830000
opls_753-458    N    0.67107000    0.48027975    0.58849961    -0.32170000
opls_753-459    N    0.67185000    0.58698972    0.84983971    -0.32160000
opls_753-460    N    0.76883999    0.32089990    0.78546005    -0.30830000
opls_753-461    N    0.77283002    0.71891980    0.58311969    -0.30830000
opls_753-462    N    0.21962998    0.99890985    0.52123957    -0.32180000
opls_753-463    N    0.16300994    0.03422982    0.67631981    -0.32180000
opls_753-464    N    0.29369000    0.83871989    0.23931997    -0.30830000
opls_753-465    N    0.26482998    0.18495970    0.95534936    -0.30830000
opls_753-466    N    0.67107009    0.48027989    0.08850005    -0.32170000
opls_753-467    N    0.67184990    0.58699005    0.34984015    -0.32180000
opls_753-468    N    0.76883990    0.32089976    0.28545961    -0.30820000
opls_753-469    N    0.77282992    0.71891994    0.08312013    -0.30830000
opls_753-470    N    0.21963007    0.99890998    0.02124001    -0.32180000
opls_753-471    N    0.16301004    0.03423016    0.17632024    -0.32180000
opls_146-472    H    0.21476993    0.08846990    0.72814016    0.11310000
opls_146-473    H    0.23947999    0.11421978    0.67956957    0.11240000
opls_146-474    H    0.18031989    0.21920980    0.86732952    0.11540000
opls_146-475    H    0.15513994    0.19175979    0.91055976    0.11460000
opls_146-476    H    0.11565003    0.05891991    0.32398978    0.11460000
opls_146-477    H    0.08583005    0.18813978    0.43616959    0.11070000
opls_146-478    H    0.06140998    0.16616985    0.49647979    0.11080000
opls_146-479    H    0.11338997    0.16711994    0.29136020    0.11210000
opls_146-480    H    0.14035000    0.02810007    0.97394031    0.11200000
opls_146-481    H    0.11489995    0.00522993    0.02732002    0.11530000
opls_185-482    H    0.02545989    0.02328002    0.27579034    0.05590000
opls_185-483    H    0.99705005    0.05636993    0.37011974    0.05440000
opls_185-484    H    0.02633999    0.11565985    0.49504971    0.05540000
opls_185-485    H    0.02271992    0.11615983    0.40430957    0.05550000
opls_146-486    H    0.17860992    0.07514015    0.03731030    0.10910000
opls_146-487    H    0.20087985    0.09114000    0.95924996    0.11250000
opls_146-488    H    0.13306000    0.16966992    0.06104986    0.11520000
opls_146-489    H    0.11016001    0.15145974    0.13250953    0.11280000
opls_702-490    H    0.18360986    0.17952969    0.03252932    0.10200000
opls_702-491    H    0.20301985    0.12838974    0.92961948    0.11610000
opls_702-492    H    0.14767000    0.13778975    0.88631976    0.04710000
opls_146-493    H    0.29077993    0.86848981    0.63370961    0.10920000
opls_146-494    H    0.26743995    0.90313002    0.60994015    0.11210000
opls_146-495    H    0.20838997    0.79945981    0.40989969    0.11220000
opls_146-496    H    0.23168993    0.76477974    0.43394972    0.11690000
opls_146-497    H    0.72357994    0.41465980    0.49655982    0.11460000
opls_146-498    H    0.74749005    0.38927999    0.54454994    0.11490000
opls_146-499    H    0.68050998    0.31039981    0.44700947    0.11520000
opls_146-500    H    0.65707000    0.33413997    0.39332017    0.11480000
opls_146-501    H    0.72164983    0.66036976    0.95477944    0.11490000
opls_146-502    H    0.74351990    0.68448959    0.89805938    0.11490000
opls_146-503    H    0.67111987    0.74960998    0.97111007    0.11520000
opls_146-504    H    0.65009001    0.72903005    0.03885031    0.11540000
opls_146-505    H    0.21935988    0.22932988    0.67399000    0.10820000
opls_146-506    H    0.19351991    0.20239984    0.71809974    0.11540000
opls_146-507    H    0.26555997    0.17500984    0.76771958    0.11340000
opls_146-508    H    0.29117998    0.20121998    0.72168020    0.11200000
opls_185-509    H    0.46069988    0.44700974    0.84665943    0.05540000
opls_185-510    H    0.45875988    0.40527002    0.82586004    0.05580000
opls_185-511    H    0.50321994    0.40468974    0.77911970    0.05480000
opls_185-512    H    0.50277991    0.42824980    0.91498982    0.05560000
opls_185-513    H    0.48820005    0.48683984    0.20786980    0.05550000
opls_185-514    H    0.48387002    0.51006994    0.17224990    0.05440000
opls_185-515    H    0.47959993    0.58939998    0.40851008    0.05580000
opls_185-516    H    0.46801005    0.55348989    0.40132981    0.05580000
opls_146-517    H    0.57082989    0.41289994    0.91360020    0.11210000
opls_146-518    H    0.59333998    0.37686980    0.93544971    0.11280000
opls_146-519    H    0.62098004    0.38295991    0.04845977    0.11600000
opls_146-520    H    0.65398004    0.51229984    0.37122968    0.11210000
opls_146-521    H    0.63157990    0.54865001    0.35287004    0.11490000
opls_146-522    H    0.59228995    0.68884987    0.51863976    0.11070000
opls_146-523    H    0.57241996    0.65358994    0.54860005    0.11070000
opls_146-524    H    0.61700001    0.68175982    0.39438965    0.11550000
opls_146-525    H    0.65015998    0.55163002    0.05993993    0.11520000
opls_146-526    H    0.62958003    0.51554998    0.08431010    0.11500000
opls_146-527    H    0.46717995    0.52362993    0.99957960    0.11210000
opls_146-528    H    0.43893007    0.58668997    0.09114999    0.11360000
opls_146-529    H    0.39962990    0.63534002    0.20788035    0.10980000
opls_146-530    H    0.34843005    0.62001972    0.35493951    0.11020000
opls_146-531    H    0.37673998    0.55897985    0.27018966    0.11070000
opls_146-532    H    0.40388006    0.44549000    0.21510987    0.11000000
opls_146-533    H    0.43543001    0.50698004    0.33068016    0.11170000
opls_146-534    H    0.36977009    0.39831988    0.06874992    0.10930000
opls_146-535    H    0.35152996    0.40962981    0.87723977    0.11000000
opls_146-536    H    0.38590997    0.46536987    0.97654980    0.11220000
opls_185-537    H    0.54059993    0.50256996    0.27509026    0.05540000
opls_185-538    H    0.51348003    0.53356987    0.38067994    0.05460000
opls_185-539    H    0.54389998    0.58821982    0.51215958    0.05550000
opls_185-540    H    0.53714992    0.60342984    0.45656967    0.05540000
opls_185-541    H    0.54586988    0.49375993    0.93738990    0.05590000
opls_185-542    H    0.54526997    0.43870992    0.86045972    0.05560000
opls_185-543    H    0.53488004    0.47545005    0.05353011    0.05610000
opls_185-544    H    0.53299991    0.52967004    0.12627033    0.05540000
opls_146-545    H    0.31950993    0.62687978    0.25648964    0.11520000
opls_146-546    H    0.29089005    0.68469994    0.32438028    0.11690000
opls_146-547    H    0.35643993    0.77592996    0.49814996    0.11580000
opls_146-548    H    0.38522003    0.71758993    0.42726021    0.11280000
opls_146-549    H    0.34282994    0.33041985    0.73700995    0.10930000
opls_146-550    H    0.30349999    0.28297999    0.65247998    0.10950000
opls_146-551    H    0.28354995    0.35159984    0.98752952    0.11360000
opls_146-552    H    0.32211990    0.39991990    0.07334005    0.10730000
opls_146-553    H    0.61852990    0.38276987    0.17303970    0.11210000
opls_146-554    H    0.63952997    0.35072974    0.20830955    0.11600000
opls_146-555    H    0.70879988    0.42929979    0.32747965    0.11310000
opls_146-556    H    0.68867007    0.45940000    0.28609989    0.11200000
opls_146-557    H    0.68484997    0.60493995    0.14273992    0.11200000
opls_146-558    H    0.70477992    0.63714994    0.10458002    0.11500000
opls_146-559    H    0.63383006    0.71564983    0.23537979    0.11600000
opls_146-560    H    0.61320004    0.68181979    0.26867956    0.11490000
opls_702-561    H    0.31714001    0.79678988    0.48825995    0.08080000
opls_702-562    H    0.29836997    0.75002987    0.36224995    0.12640000
opls_702-563    H    0.26906994    0.75810987    0.48931975    0.04950000
opls_702-564    H    0.25365994    0.29996976    0.83573951    0.11990000
opls_702-565    H    0.25434985    0.29019974    0.72512962    0.11390000
opls_702-566    H    0.29440003    0.23062971    0.67143944    0.09000000
opls_702-567    H    0.68030997    0.73530970    0.21946957    0.08080000
opls_702-568    H    0.70458993    0.69088986    0.12587983    0.10490000
opls_702-569    H    0.64920002    0.68688982    0.05426977    0.04800000
opls_702-570    H    0.68680999    0.33250986    0.22132972    0.08080000
opls_702-571    H    0.70931006    0.37830995    0.31493001    0.10490000
opls_702-572    H    0.65348992    0.37853010    0.38510033    0.04800000
opls_146-573    H    0.77451999    0.36990979    0.72241987    0.11050000
opls_146-574    H    0.74730001    0.39774997    0.68644993    0.11520000
opls_146-575    H    0.71847999    0.26183984    0.37246978    0.10910000
opls_146-576    H    0.74573988    0.23411988    0.40843972    0.11520000
opls_185-577    H    0.97550003    0.09629986    0.35616994    0.05480000
opls_185-578    H    0.96230997    0.04076992    0.25858989    0.05610000
opls_185-579    H    0.98147004    0.07810005    0.19610028    0.05590000
opls_185-580    H    0.94782996    0.07107986    0.20829988    0.05580000
opls_146-581    H    0.88271004    0.12517998    0.12617974    0.11120000
opls_146-582    H    0.86987987    0.11274974    0.31996957    0.11090000
opls_146-583    H    0.89664990    0.04328986    0.17543986    0.11280000
opls_146-584    H    0.83589990    0.14760999    0.19340988    0.10800000
opls_146-585    H    0.80868006    0.21786999    0.34057018    0.10910000
opls_146-586    H    0.84778986    0.26499976    0.61932973    0.10740000
opls_146-587    H    0.87532995    0.19526995    0.47301023    0.11070000
opls_702-588    H    0.81888990    0.31613981    0.66764966    0.12640000
opls_702-589    H    0.81191998    0.30369003    0.55489026    0.10880000
opls_702-590    H    0.77729998    0.24493998    0.51484030    0.07680000
opls_146-591    H    0.24429992    0.90337003    0.38383033    0.11150000
opls_146-592    H    0.26264998    0.87294975    0.42659971    0.11220000
opls_146-593    H    0.18455001    0.86880993    0.51144014    0.11040000
opls_146-594    H    0.16625006    0.90185981    0.47529958    0.11220000
opls_146-595    H    0.05340997    0.91376990    0.89039010    0.11690000
opls_146-596    H    0.07704989    0.88418988    0.92773998    0.11120000
opls_146-597    H    0.10858002    0.89506981    0.04183975    0.11210000
opls_146-598    H    0.14215000    0.02693992    0.34671000    0.09360000
opls_185-599    H    0.01957984    0.96198981    0.96400983    0.05610000
opls_185-600    H    0.01557001    0.01433995    0.02994006    0.06540000
opls_146-601    H    0.11330002    0.90015978    0.17819974    0.11200000
opls_146-602    H    0.14116995    0.87128977    0.21030954    0.11200000
opls_146-603    H    0.20655992    0.94755994    0.28674984    0.11080000
opls_146-604    H    0.17894008    0.97646997    0.25455033    0.11250000
opls_702-605    H    0.18477009    0.85840000    0.22705001    0.10490000
opls_702-606    H    0.21306008    0.88321989    0.23856008    0.11350000
opls_702-607    H    0.17206997    0.93866977    0.44448969    0.08490000
opls_146-608    H    0.72709999    0.82108992    0.96486999    0.11480000
opls_146-609    H    0.70243983    0.79731969    0.01889965    0.11250000
opls_146-610    H    0.74557984    0.66908988    0.74825001    0.11340000
opls_146-611    H    0.77098001    0.69391968    0.69840942    0.10980000
opls_185-612    H    0.96179004    0.94018983    0.68364959    0.05570000
opls_185-613    H    0.97313998    0.89837987    0.65439026    0.05580000
opls_185-614    H    0.98407989    0.99392964    0.89913941    0.05550000
opls_185-615    H    0.00066003    0.97488980    0.78011003    0.05550000
opls_146-616    H    0.93447994    0.99689994    0.79243979    0.11170000
opls_146-617    H    0.90900988    0.06784989    0.94327993    0.11360000
opls_146-618    H    0.94524993    0.90545988    0.00078012    0.10910000
opls_146-619    H    0.97752001    0.95703990    0.05302000    0.11210000
opls_146-620    H    0.90094998    0.87522982    0.94568977    0.11340000
opls_146-621    H    0.84353987    0.91366989    0.87688005    0.10910000
opls_146-622    H    0.87571997    0.96159960    0.91718946    0.11070000
opls_185-623    H    0.03771992    0.98558982    0.86356964    0.05480000
opls_185-624    H    0.04853987    0.93581978    0.80310992    0.05580000
opls_146-625    H    0.82103001    0.91766963    0.00976953    0.11500000
opls_146-626    H    0.78979991    0.87361991    0.98924015    0.11070000
opls_146-627    H    0.84348992    0.75811967    0.73966957    0.11690000
opls_146-628    H    0.87496004    0.80249994    0.76227017    0.11220000
opls_702-629    H    0.80584988    0.75445987    0.80599997    0.10490000
opls_702-630    H    0.79371996    0.80797971    0.94977946    0.12670000
opls_702-631    H    0.76042985    0.80942977    0.85459958    0.04950000
opls_146-632    H    0.21477003    0.08846996    0.22813972    0.11310000
opls_146-633    H    0.23948008    0.11421992    0.17957001    0.11240000
opls_146-634    H    0.18031998    0.21920993    0.36732996    0.11550000
opls_146-635    H    0.15514004    0.19175993    0.41056020    0.11460000
opls_146-636    H    0.11564993    0.05892005    0.82399022    0.11460000
opls_146-637    H    0.08582995    0.18813992    0.93617003    0.11070000
opls_146-638    H    0.06140988    0.16616972    0.99647935    0.11070000
opls_146-639    H    0.11338988    0.16711981    0.79135976    0.11210000
opls_146-640    H    0.14034991    0.02809993    0.47393987    0.11200000
opls_146-641    H    0.11489986    0.00522979    0.52731958    0.11520000
opls_185-642    H    0.02545999    0.02327988    0.77578990    0.05590000
opls_185-643    H    0.99704995    0.05637007    0.87012018    0.05440000
opls_185-644    H    0.02633989    0.11565999    0.99505015    0.05540000
opls_185-645    H    0.02271982    0.11615997    0.90431001    0.05550000
opls_146-646    H    0.17861002    0.07514001    0.53730986    0.10910000
opls_146-647    H    0.20087996    0.09113986    0.45924952    0.11250000
opls_146-648    H    0.13305990    0.16967006    0.56105030    0.11520000
opls_146-649    H    0.11015991    0.15145988    0.63250997    0.11280000
opls_702-650    H    0.18360995    0.17952983    0.53252976    0.11230000
opls_702-651    H    0.20301994    0.12838988    0.42961992    0.11610000
opls_702-652    H    0.14766990    0.13779009    0.38632020    0.04710000
opls_146-653    H    0.29078003    0.86848994    0.13371005    0.10910000
opls_146-654    H    0.26744005    0.90312988    0.10993971    0.11210000
opls_146-655    H    0.20838987    0.79945995    0.90990013    0.11220000
opls_146-656    H    0.23168983    0.76477988    0.93395016    0.11690000
opls_146-657    H    0.72357985    0.41465966    0.99655938    0.11460000
opls_146-658    H    0.74748995    0.38928013    0.04455038    0.11490000
opls_146-659    H    0.68050988    0.31039995    0.94700991    0.11520000
opls_146-660    H    0.65706990    0.33413983    0.89331973    0.11480000
opls_146-661    H    0.72164993    0.66036990    0.45477988    0.11490000
opls_146-662    H    0.74352000    0.68448993    0.39805982    0.11490000
opls_146-663    H    0.67111997    0.74960984    0.47110963    0.11520000
opls_146-664    H    0.65008992    0.72902992    0.53884987    0.11540000
opls_146-665    H    0.21935998    0.22932974    0.17398956    0.10810000
opls_146-666    H    0.19352000    0.20239998    0.21810018    0.11540000
opls_146-667    H    0.26556007    0.17500997    0.26772002    0.11350000
opls_146-668    H    0.29117989    0.20121984    0.22167976    0.11200000
opls_185-669    H    0.46069998    0.44700988    0.34665987    0.05540000
opls_185-670    H    0.45875998    0.40526988    0.32585960    0.05580000
opls_185-671    H    0.50322004    0.40469008    0.27912014    0.05480000
opls_185-672    H    0.50278000    0.42824994    0.41499026    0.05560000
opls_185-673    H    0.48819995    0.48683998    0.70787024    0.05550000
opls_185-674    H    0.48386992    0.51006981    0.67224946    0.05440000
opls_185-675    H    0.47959983    0.58939985    0.90850964    0.05580000
opls_185-676    H    0.46800995    0.55348975    0.90132937    0.05580000
opls_146-677    H    0.57082999    0.41289980    0.41359976    0.11210000
opls_146-678    H    0.59333988    0.37686994    0.43545015    0.11280000
opls_146-679    H    0.62097994    0.38296005    0.54846021    0.11600000
opls_146-680    H    0.65397993    0.51229998    0.87123012    0.11210000
opls_146-681    H    0.63158000    0.54864987    0.85286960    0.11490000
opls_146-682    H    0.59228985    0.68884973    0.01863932    0.11070000
opls_146-683    H    0.57241986    0.65358980    0.04859961    0.11070000
opls_146-684    H    0.61699990    0.68175996    0.89439009    0.11540000
opls_146-685    H    0.65015989    0.55162968    0.55993949    0.11200000
opls_146-686    H    0.62957994    0.51554984    0.58430966    0.11500000
opls_146-687    H    0.46718004    0.52362986    0.49958004    0.11210000
opls_146-688    H    0.43892998    0.58668983    0.59114956    0.11360000
opls_146-689    H    0.39963000    0.63533988    0.70787991    0.10990000
opls_146-690    H    0.34842995    0.62001985    0.85493995    0.11020000
opls_146-691    H    0.37673988    0.55897999    0.77019010    0.11070000
opls_146-692    H    0.40387996    0.44548966    0.71510943    0.11000000
opls_146-693    H    0.43542991    0.50697991    0.83067972    0.11170000
opls_146-694    H    0.36976999    0.39831974    0.56874948    0.10930000
opls_146-695    H    0.35153005    0.40962994    0.37724021    0.11000000
opls_146-696    H    0.38590987    0.46537001    0.47655024    0.11220000
opls_185-697    H    0.54060003    0.50256982    0.77508982    0.05540000
opls_185-698    H    0.51347994    0.53356973    0.88067950    0.05460000
opls_185-699    H    0.54389988    0.58821996    0.01216002    0.05550000
opls_185-700    H    0.53715001    0.60342998    0.95657011    0.05540000
opls_185-701    H    0.54586998    0.49375979    0.43738946    0.05590000
opls_185-702    H    0.54527006    0.43871006    0.36046016    0.05560000
opls_185-703    H    0.53487995    0.47544991    0.55352967    0.05610000
opls_185-704    H    0.53300001    0.52966990    0.62626989    0.05540000
opls_146-705    H    0.31951003    0.62687992    0.75649008    0.11520000
opls_146-706    H    0.29088995    0.68469981    0.82437984    0.11690000
opls_146-707    H    0.35643983    0.77592982    0.99814952    0.11580000
opls_146-708    H    0.38521994    0.71758979    0.92725977    0.11280000
opls_146-709    H    0.34283004    0.33041971    0.23700951    0.10930000
opls_146-710    H    0.30350009    0.28297985    0.15247954    0.10950000
opls_146-711    H    0.28355005    0.35159998    0.48752996    0.11360000
opls_146-712    H    0.32212000    0.39991976    0.57333961    0.10730000
opls_146-713    H    0.61853000    0.38277001    0.67304014    0.11210000
opls_146-714    H    0.63952987    0.35072988    0.70830999    0.11600000
opls_146-715    H    0.70879998    0.42929992    0.82748009    0.11310000
opls_146-716    H    0.68866997    0.45939966    0.78609945    0.11200000
opls_146-717    H    0.68484988    0.60493981    0.64273948    0.11200000
opls_146-718    H    0.70478002    0.63714981    0.60457958    0.11500000
opls_146-719    H    0.63382996    0.71564997    0.73538023    0.11600000
opls_146-720    H    0.61319994    0.68181993    0.76868000    0.11490000
opls_702-721    H    0.31713992    0.79678974    0.98825951    0.08090000
opls_702-722    H    0.29836988    0.75002973    0.86224951    0.12640000
opls_702-723    H    0.26907003    0.75811001    0.98932019    0.04950000
opls_702-724    H    0.25366003    0.29996989    0.33573995    0.11990000
opls_702-725    H    0.25434995    0.29020007    0.22513006    0.11390000
opls_702-726    H    0.29439993    0.23062984    0.17143988    0.09000000
opls_702-727    H    0.68030987    0.73530983    0.71947001    0.08080000
opls_702-728    H    0.70459003    0.69088999    0.62588027    0.10490000
opls_702-729    H    0.64919991    0.68688996    0.55427021    0.04800000
opls_702-730    H    0.68680989    0.33251000    0.72133016    0.08080000
opls_702-731    H    0.70930997    0.37830981    0.81492957    0.10490000
opls_702-732    H    0.65349002    0.37852996    0.88509989    0.04800000
opls_146-733    H    0.77451989    0.36991013    0.22242031    0.11020000
opls_146-734    H    0.74729991    0.39775011    0.18645037    0.11520000
opls_146-735    H    0.71847989    0.26183998    0.87247022    0.10910000
opls_146-736    H    0.74573998    0.23412001    0.90844016    0.11520000
opls_185-737    H    0.97549993    0.09629973    0.85616950    0.05480000
opls_185-738    H    0.96230988    0.04076978    0.75858945    0.05610000
opls_185-739    H    0.98146994    0.07809991    0.69609984    0.05590000
opls_185-740    H    0.94782986    0.07107972    0.70829944    0.05590000
opls_146-741    H    0.88270994    0.12517992    0.62618018    0.11120000
opls_146-742    H    0.86987997    0.11274988    0.81997001    0.11090000
opls_146-743    H    0.89665001    0.04328972    0.67543942    0.11280000
opls_146-744    H    0.83590000    0.14760985    0.69340944    0.10790000
opls_146-745    H    0.80867996    0.21786985    0.84056974    0.10910000
opls_146-746    H    0.84778996    0.26500009    0.11933017    0.10730000
opls_146-747    H    0.87532985    0.19526981    0.97300979    0.11070000
opls_702-748    H    0.81889000    0.31613995    0.16765010    0.12640000
opls_702-749    H    0.81192008    0.30368989    0.05488982    0.10880000
opls_702-750    H    0.77730008    0.24493984    0.01483986    0.07680000
opls_146-751    H    0.24430002    0.90336989    0.88382989    0.11150000
opls_146-752    H    0.26264988    0.87294989    0.92660015    0.11220000
opls_146-753    H    0.18454992    0.86880979    0.01143970    0.11040000
opls_146-754    H    0.16624996    0.90185995    0.97530002    0.11220000
opls_146-755    H    0.05341008    0.91376976    0.39038966    0.11690000
opls_146-756    H    0.07705000    0.88418974    0.42773954    0.11110000
opls_146-757    H    0.10857992    0.89506994    0.54184019    0.11220000
opls_146-758    H    0.14214990    0.02693978    0.84670956    0.09360000
opls_185-759    H    0.01957994    0.96198995    0.46401027    0.05610000
opls_185-760    H    0.01556991    0.01433981    0.52993962    0.06540000
opls_146-761    H    0.11329992    0.90015991    0.67820018    0.11200000
opls_146-762    H    0.14116985    0.87128991    0.71030998    0.11200000
opls_146-763    H    0.20656002    0.94755960    0.78674940    0.11070000
opls_146-764    H    0.17893999    0.97646983    0.75454989    0.11250000
opls_702-765    H    0.18476999    0.85839966    0.72704957    0.10490000
opls_702-766    H    0.21305999    0.88321975    0.73855964    0.11350000
opls_702-767    H    0.17206987    0.93866991    0.94449013    0.08490000
opls_146-768    H    0.72709989    0.82108978    0.46486955    0.11480000
opls_146-769    H    0.70243993    0.79732003    0.51890009    0.11250000
opls_146-770    H    0.74557994    0.66908974    0.24824957    0.11350000
opls_146-771    H    0.77097991    0.69391982    0.19840986    0.10980000
opls_185-772    H    0.96178994    0.94018997    0.18365003    0.05570000
opls_185-773    H    0.97314008    0.89837994    0.15438982    0.05580000
opls_185-774    H    0.98407999    0.99392978    0.39913985    0.05550000
opls_185-775    H    0.00065994    0.97488986    0.28010959    0.05550000
opls_146-776    H    0.93448004    0.99690007    0.29244023    0.11170000
opls_146-777    H    0.90900998    0.06784975    0.44327949    0.11360000
opls_146-778    H    0.94525003    0.90545974    0.50077968    0.10910000
opls_146-779    H    0.97751991    0.95703976    0.55301956    0.11210000
opls_146-780    H    0.90094988    0.87522996    0.44569021    0.11340000
opls_146-781    H    0.84353997    0.91366975    0.37687961    0.10910000
opls_146-782    H    0.87572006    0.96159994    0.41718990    0.11070000
opls_185-783    H    0.03772001    0.98558995    0.36357008    0.05480000
opls_185-784    H    0.04853997    0.93582012    0.30311036    0.05580000
opls_146-785    H    0.82102991    0.91766997    0.50976997    0.11500000
opls_146-786    H    0.78980001    0.87361977    0.48923971    0.11070000
opls_146-787    H    0.84349002    0.75812001    0.23967001    0.11520000
opls_146-788    H    0.87495994    0.80249980    0.26226973    0.11220000
opls_702-789    H    0.80584998    0.75445973    0.30599953    0.10490000
opls_702-790    H    0.79372006    0.80797985    0.44977990    0.12670000
opls_702-791    H    0.76042994    0.80942991    0.35460002    0.04950000
