#======================================================================
# Crystal Data Generated By AuToFF
#----------------------------------------------------------------------

data_AuToFF_phase_1

_cell_length_a                         39.2900
_cell_length_b                         39.2900
_cell_length_c                         9.3180
_cell_angle_alpha                      90.00
_cell_angle_beta                       90.00
_cell_angle_gamma                      120.00
_symmetry_space_group_name_H-M_alt     'P 1'
_symmetry_space_group_IT_number        1

loop_
_space_group_symop_operation_xyz
   'x, y, z'

loop_
   _atom_site_label
   _atom_site_type_symbol
   _atom_site_fract_x
   _atom_site_fract_y
   _atom_site_fract_z
   _atom_site_charge
opls_182-0    C    0.91411010    0.24183995    0.39179008    0.01710000
opls_137-1    C    0.93619018    0.28600012    0.35541962    0.00670000
opls_136-2    C    0.92401998    0.29292009    0.20503971    -0.14690000
opls_135-3    C    0.98081011    0.30220001    0.36506010    -0.41460000
opls_135-4    C    0.94118013    0.33652010    0.16927989    -0.39810000
opls_166-5    C    0.79304004    0.10428012    0.42978965    0.22750000
opls_145-6    C    0.77990005    0.13081002    0.39467053    -0.22320000
opls_234-7    C    0.79095005    0.19856998    0.35562030    0.44490000
opls_700-8    C    0.80622985    0.17153988    0.38676969    -0.23450000
opls_142-9    C    0.71249991    0.21576999    0.45905023    0.01270000
opls_916-10    C    0.67724993    0.30296002    0.42201009    0.16290000
opls_145-11    C    0.72023983    0.27789987    0.34961043    -0.13320000
opls_145-12    C    0.70883990    0.30637004    0.33980039    -0.17850000
opls_145-13    C    0.65689990    0.27019991    0.51252951    -0.17840000
opls_145-14    C    0.66818007    0.24168007    0.52194999    -0.13000000
opls_700-15    C    0.70012988    0.24541984    0.44172998    0.06700000
opls_182-16    C    0.72874002    0.04642989    0.38131037    0.01700000
opls_137-17    C    0.70769998    0.00122994    0.39069972    0.00670000
opls_136-18    C    0.73032996    0.98506002    0.30474029    -0.14690000
opls_135-19    C    0.66507986    0.98360995    0.33748015    -0.41460000
opls_135-20    C    0.71419010    0.94102005    0.32832046    -0.39810000
opls_166-21    C    0.84677997    0.18634997    0.40921979    0.22820000
opls_145-22    C    0.85972991    0.15991999    0.44774952    -0.24710000
opls_234-23    C    0.84837007    0.09285009    0.50126959    0.44410000
opls_700-24    C    0.83324993    0.11937998    0.46022000    -0.21650000
opls_142-25    C    0.92213016    0.09053010    0.72333977    0.01370000
opls_916-26    C    0.97879999    0.02153991    0.77018995    0.15540000
opls_145-27    C    0.92431998    0.02859008    0.68053016    -0.12690000
opls_145-28    C    0.94354009    0.00689999    0.69210024    -0.17570000
opls_145-29    C    0.99384989    0.05826991    0.83846963    -0.17990000
opls_145-30    C    0.97487993    0.08025007    0.82543035    -0.12930000
opls_700-31    C    0.94025003    0.06581998    0.74475961    0.05960000
opls_182-32    C    0.75815990    0.67226991    0.39179008    0.01710000
opls_137-33    C    0.71399998    0.65018982    0.35541962    0.00670000
opls_136-34    C    0.70707995    0.63110009    0.20503971    -0.14690000
opls_135-35    C    0.69780005    0.67861003    0.36506010    -0.41460000
opls_135-36    C    0.66347983    0.60465983    0.16927989    -0.39800000
opls_166-37    C    0.89571997    0.68875988    0.42978965    0.22750000
opls_145-38    C    0.86918999    0.64909008    0.39467053    -0.22320000
opls_234-39    C    0.80142994    0.59237986    0.35562030    0.44490000
opls_700-40    C    0.82846003    0.63468998    0.38676969    -0.23440000
opls_142-41    C    0.78423004    0.49672987    0.45905023    0.01270000
opls_916-42    C    0.69703983    0.37428988    0.42201009    0.17320000
opls_145-43    C    0.72209997    0.44233992    0.34961043    -0.13320000
opls_145-44    C    0.69363000    0.40246998    0.33980039    -0.17840000
opls_145-45    C    0.72980001    0.38670005    0.51252951    -0.17840000
opls_145-46    C    0.75832001    0.42650004    0.52194999    -0.13000000
opls_700-47    C    0.75458005    0.45471011    0.44172998    0.06700000
opls_182-48    C    0.95357004    0.68230984    0.38131037    0.01700000
opls_137-49    C    0.99877004    0.70647008    0.39069972    0.00670000
opls_136-50    C    0.01493989    0.74526996    0.30474029    -0.14690000
opls_135-51    C    0.01638982    0.68146989    0.33748015    -0.41450000
opls_135-52    C    0.05898000    0.77316998    0.32832046    -0.39810000
opls_166-53    C    0.81364992    0.66042989    0.40921979    0.22830000
opls_145-54    C    0.84008006    0.69980991    0.44774952    -0.24710000
opls_234-55    C    0.90714993    0.75552002    0.50126959    0.44410000
opls_700-56    C    0.88061990    0.71386998    0.46022000    -0.21640000
opls_142-57    C    0.90946992    0.83160006    0.72333977    0.01370000
opls_916-58    C    0.97845994    0.95725992    0.77018995    0.15540000
opls_145-59    C    0.97140986    0.89572987    0.68053016    -0.12690000
opls_145-60    C    0.99310004    0.93663989    0.69210024    -0.17580000
opls_145-61    C    0.94172984    0.93557982    0.83846963    -0.17990000
opls_145-62    C    0.91974989    0.89462983    0.82543035    -0.12930000
opls_700-63    C    0.93417991    0.87443007    0.74475961    0.05960000
opls_182-64    C    0.32773000    0.08589014    0.39179008    0.01710000
opls_137-65    C    0.34981009    0.06381006    0.35541962    0.00670000
opls_136-66    C    0.36889996    0.07598011    0.20503971    -0.14690000
opls_135-67    C    0.32139009    0.01918995    0.36506010    -0.41440000
opls_135-68    C    0.39534004    0.05882007    0.16927989    -0.39810000
opls_166-69    C    0.31123999    0.20696000    0.42978965    0.22750000
opls_145-70    C    0.35090997    0.22009990    0.39467053    -0.22320000
opls_234-71    C    0.40761987    0.20904987    0.35562030    0.44470000
opls_700-72    C    0.36530997    0.19376985    0.38676969    -0.23450000
opls_142-73    C    0.50326990    0.28749985    0.45905023    0.01270000
opls_916-74    C    0.62570999    0.32275010    0.42201009    0.17320000
opls_145-75    C    0.55766005    0.27975991    0.34961043    -0.13320000
opls_145-76    C    0.59753010    0.29115997    0.33980039    -0.17850000
opls_145-77    C    0.61330008    0.34310004    0.51252951    -0.17840000
opls_145-78    C    0.57349992    0.33181989    0.52194999    -0.13000000
opls_700-79    C    0.54529007    0.29987004    0.44172998    0.06700000
opls_182-80    C    0.31769006    0.27125998    0.38131037    0.01700000
opls_137-81    C    0.29352998    0.29229998    0.39069972    0.00670000
opls_136-82    C    0.25472990    0.26967002    0.30474029    -0.14690000
opls_135-83    C    0.31852992    0.33491986    0.33748015    -0.41450000
opls_135-84    C    0.22682990    0.28580997    0.32832046    -0.39810000
opls_166-85    C    0.33956996    0.15321985    0.40921979    0.22830000
opls_145-86    C    0.30019002    0.14027010    0.44774952    -0.24700000
opls_234-87    C    0.24448000    0.15162989    0.50126959    0.44400000
opls_700-88    C    0.28612992    0.16675003    0.46022000    -0.21650000
opls_142-89    C    0.16840007    0.07787013    0.72333977    0.01370000
opls_916-90    C    0.04273992    0.02119988    0.77018995    0.15540000
opls_145-91    C    0.10426991    0.07568005    0.68053016    -0.12690000
opls_145-92    C    0.06336012    0.05646012    0.69210024    -0.17580000
opls_145-93    C    0.06442011    0.00614998    0.83846963    -0.17990000
opls_145-94    C    0.10536992    0.02512010    0.82543035    -0.12930000
opls_700-95    C    0.12557006    0.05974995    0.74475961    0.05960000
opls_182-96    C    0.08588990    0.75816005    0.89179008    0.01710000
opls_137-97    C    0.06380982    0.71399988    0.85541962    0.00670000
opls_136-98    C    0.07598002    0.70707991    0.70503971    -0.14690000
opls_135-99    C    0.01918989    0.69779999    0.86506010    -0.41460000
opls_135-100    C    0.05881987    0.66347990    0.66927989    -0.39800000
opls_166-101    C    0.20695996    0.89571988    0.92978965    0.22750000
opls_145-102    C    0.22009995    0.86918998    0.89467053    -0.22320000
opls_234-103    C    0.20904995    0.80143002    0.85562030    0.44480000
opls_700-104    C    0.19377000    0.82845983    0.88676969    -0.23450000
opls_142-105    C    0.28750009    0.78423001    0.95905023    0.01270000
opls_916-106    C    0.32275007    0.69703998    0.92201009    0.16290000
opls_145-107    C    0.27976002    0.72209983    0.84961043    -0.13320000
opls_145-108    C    0.29116010    0.69362996    0.83980039    -0.17840000
opls_145-109    C    0.34310010    0.72980009    0.01252951    -0.17840000
opls_145-110    C    0.33181993    0.75831993    0.02194999    -0.13000000
opls_700-111    C    0.29986998    0.75457986    0.94172998    0.06700000
opls_182-112    C    0.27125984    0.95356981    0.88131037    0.01700000
opls_137-113    C    0.29230002    0.99877006    0.89069972    0.00670000
opls_136-114    C    0.26967004    0.01493998    0.80474029    -0.14690000
opls_135-115    C    0.33492014    0.01639005    0.83748015    -0.41460000
opls_135-116    C    0.28580990    0.05897995    0.82832046    -0.39810000
opls_166-117    C    0.15322003    0.81365003    0.90921979    0.22820000
opls_145-118    C    0.14027009    0.84008001    0.94774952    -0.24710000
opls_234-119    C    0.15162993    0.90714991    0.00126959    0.44400000
opls_700-120    C    0.16675007    0.88062002    0.96022000    -0.21650000
opls_142-121    C    0.07786984    0.90946990    0.22333977    0.01370000
opls_916-122    C    0.02120001    0.97846009    0.27018995    0.15540000
opls_145-123    C    0.07568002    0.97140992    0.18053016    -0.12690000
opls_145-124    C    0.05645991    0.99310001    0.19210024    -0.17580000
opls_145-125    C    0.00615011    0.94173009    0.33846963    -0.17990000
opls_145-126    C    0.02512007    0.91974993    0.32543035    -0.12930000
opls_700-127    C    0.05974997    0.93418002    0.24475961    0.05960000
opls_182-128    C    0.24184010    0.32773009    0.89179008    0.01710000
opls_137-129    C    0.28599988    0.34980988    0.85541962    0.00670000
opls_136-130    C    0.29292005    0.36889991    0.70503971    -0.14690000
opls_135-131    C    0.30219995    0.32138997    0.86506010    -0.41450000
opls_135-132    C    0.33652003    0.39533988    0.66927989    -0.39810000
opls_166-133    C    0.10428003    0.31124012    0.92978965    0.22750000
opls_145-134    C    0.13081001    0.35090992    0.89467053    -0.22320000
opls_234-135    C    0.19856991    0.40761985    0.85562030    0.44470000
opls_700-136    C    0.17153997    0.36531002    0.88676969    -0.23450000
opls_142-137    C    0.21576981    0.50326984    0.95905023    0.01270000
opls_916-138    C    0.30296003    0.62570982    0.92201009    0.17320000
opls_145-139    C    0.27790003    0.55766008    0.84961043    -0.13320000
opls_145-140    C    0.30637000    0.59753002    0.83980039    -0.17850000
opls_145-141    C    0.27019999    0.61329995    0.01252951    -0.17840000
opls_145-142    C    0.24167999    0.57349996    0.02194999    -0.13000000
opls_700-143    C    0.24541995    0.54528989    0.94172998    0.06700000
opls_182-144    C    0.04642982    0.31768987    0.88131037    0.01700000
opls_137-145    C    0.00122996    0.29352992    0.89069972    0.00670000
opls_136-146    C    0.98506011    0.25473004    0.80474029    -0.14690000
opls_135-147    C    0.98361018    0.31853011    0.83748015    -0.41460000
opls_135-148    C    0.94102000    0.22683002    0.82832046    -0.39800000
opls_166-149    C    0.18635008    0.33957011    0.90921979    0.22820000
opls_145-150    C    0.15991994    0.30019009    0.94774952    -0.24700000
opls_234-151    C    0.09285007    0.24447998    0.00126959    0.44410000
opls_700-152    C    0.11938010    0.28613002    0.96022000    -0.21650000
opls_142-153    C    0.09053008    0.16839994    0.22333977    0.01370000
opls_916-154    C    0.02154006    0.04274008    0.27018995    0.15540000
opls_145-155    C    0.02859014    0.10427013    0.18053016    -0.12690000
opls_145-156    C    0.00689996    0.06336011    0.19210024    -0.17580000
opls_145-157    C    0.05827001    0.06441988    0.33846963    -0.17980000
opls_145-158    C    0.08024997    0.10536987    0.32543035    -0.12930000
opls_700-159    C    0.06582009    0.12556993    0.24475961    0.05960000
opls_182-160    C    0.67227000    0.91410986    0.89179008    0.01710000
opls_137-161    C    0.65018991    0.93618994    0.85541962    0.00670000
opls_136-162    C    0.63110004    0.92401989    0.70503971    -0.14690000
opls_135-163    C    0.67860991    0.98081005    0.86506010    -0.41460000
opls_135-164    C    0.60465996    0.94117993    0.66927989    -0.39810000
opls_166-165    C    0.68876001    0.79304000    0.92978965    0.22750000
opls_145-166    C    0.64909003    0.77990010    0.89467053    -0.22320000
opls_234-167    C    0.59237999    0.79094984    0.85562030    0.44470000
opls_700-168    C    0.63468988    0.80622986    0.88676969    -0.23450000
opls_142-169    C    0.49672995    0.71249986    0.95905023    0.01270000
opls_916-170    C    0.37429001    0.67724990    0.92201009    0.17330000
opls_145-171    C    0.44233995    0.72024009    0.84961043    -0.13320000
opls_145-172    C    0.40246990    0.70884003    0.83980039    -0.17850000
opls_145-173    C    0.38669992    0.65689996    0.01252951    -0.17840000
opls_145-174    C    0.42649994    0.66817982    0.02194999    -0.12990000
opls_700-175    C    0.45470993    0.70012996    0.94172998    0.06700000
opls_182-176    C    0.68230994    0.72874002    0.88131037    0.01700000
opls_137-177    C    0.70647002    0.70770002    0.89069972    0.00670000
opls_136-178    C    0.74527010    0.73032998    0.80474029    -0.14690000
opls_135-179    C    0.68146993    0.66507985    0.83748015    -0.41460000
opls_135-180    C    0.77317010    0.71419003    0.82832046    -0.39790000
opls_166-181    C    0.66042989    0.84677986    0.90921979    0.22830000
opls_145-182    C    0.69980998    0.85972990    0.94774952    -0.24710000
opls_234-183    C    0.75551985    0.84836981    0.00126959    0.44400000
opls_700-184    C    0.71387008    0.83324997    0.96022000    -0.21650000
opls_142-185    C    0.83159993    0.92212987    0.22333977    0.01370000
opls_916-186    C    0.95725993    0.97879983    0.27018995    0.15540000
opls_145-187    C    0.89573009    0.92431995    0.18053016    -0.12680000
opls_145-188    C    0.93663988    0.94353988    0.19210024    -0.17580000
opls_145-189    C    0.93557989    0.99385002    0.33846963    -0.17990000
opls_145-190    C    0.89463008    0.97487990    0.32543035    -0.12920000
opls_700-191    C    0.87442994    0.94025005    0.24475961    0.05960000
opls_236-192    O    0.80949003    0.22681003    0.27685018    -0.40220000
opls_179-193    O    0.76746008    0.06318995    0.44062030    -0.25170000
opls_236-194    O    0.83529997    0.06090994    0.44258961    -0.40940000
opls_179-195    O    0.87260999    0.22732993    0.39549045    -0.23780000
opls_236-196    O    0.77319007    0.58267996    0.27685018    -0.40240000
opls_179-197    O    0.93680999    0.70427001    0.44062030    -0.25170000
opls_236-198    O    0.93908985    0.77438992    0.44258961    -0.40940000
opls_179-199    O    0.77267007    0.64528007    0.39549045    -0.23780000
opls_236-200    O    0.41731990    0.19051000    0.27685018    -0.40240000
opls_179-201    O    0.29572993    0.23254004    0.44062030    -0.25170000
opls_236-202    O    0.22561004    0.16469985    0.44258961    -0.40940000
opls_179-203    O    0.35471994    0.12739000    0.39549045    -0.23780000
opls_236-204    O    0.19050997    0.77318997    0.77685018    -0.40240000
opls_179-205    O    0.23253992    0.93681005    0.94062030    -0.25160000
opls_236-206    O    0.16470003    0.93909006    0.94258961    -0.40940000
opls_179-207    O    0.12739001    0.77267007    0.89549045    -0.23770000
opls_236-208    O    0.22680993    0.41732004    0.77685018    -0.40240000
opls_179-209    O    0.06319001    0.29572999    0.94062030    -0.25170000
opls_236-210    O    0.06091015    0.22561008    0.94258961    -0.40930000
opls_179-211    O    0.22732993    0.35471993    0.89549045    -0.23780000
opls_236-212    O    0.58268010    0.80949000    0.77685018    -0.40230000
opls_179-213    O    0.70427007    0.76745996    0.94062030    -0.25170000
opls_236-214    O    0.77438981    0.83529986    0.94258961    -0.40940000
opls_179-215    O    0.64528006    0.87261000    0.89549045    -0.23780000
opls_238-216    N    0.75669987    0.19258987    0.41695965    -0.27980000
opls_750-217    N    0.74366995    0.21967993    0.39547972    -0.18550000
opls_238-218    N    0.87710991    0.10398006    0.60320026    -0.28000000
opls_750-219    N    0.89360011    0.08018012    0.63242971    -0.18590000
opls_238-220    N    0.80740997    0.56410983    0.41695965    -0.28000000
opls_750-221    N    0.78032006    0.52399009    0.39547972    -0.18560000
opls_238-222    N    0.89602008    0.77313001    0.60320026    -0.28000000
opls_750-223    N    0.91981991    0.81341992    0.63242971    -0.18590000
opls_238-224    N    0.43589001    0.24330000    0.41695965    -0.28000000
opls_750-225    N    0.47600999    0.25632999    0.39547972    -0.18560000
opls_238-226    N    0.22687001    0.12288993    0.60320026    -0.28000000
opls_750-227    N    0.18657998    0.10639996    0.63242971    -0.18590000
opls_238-228    N    0.24329998    0.80740983    0.91695965    -0.27990000
opls_750-229    N    0.25633005    0.78032007    0.89547972    -0.18560000
opls_238-230    N    0.12289009    0.89601994    0.10320026    -0.28000000
opls_750-231    N    0.10639989    0.91981988    0.13242971    -0.18580000
opls_238-232    N    0.19258989    0.43588988    0.91695965    -0.27990000
opls_750-233    N    0.21967994    0.47600991    0.89547972    -0.18550000
opls_238-234    N    0.10397992    0.22686999    0.10320026    -0.28000000
opls_750-235    N    0.08018009    0.18658008    0.13242971    -0.18590000
opls_238-236    N    0.56410999    0.75670000    0.91695965    -0.28000000
opls_750-237    N    0.52399001    0.74367001    0.89547972    -0.18560000
opls_238-238    N    0.77312999    0.87711007    0.10320026    -0.28000000
opls_750-239    N    0.81342002    0.89360004    0.13242971    -0.18590000
opls_239-240    N    0.66667004    0.33332990    0.41704980    -0.15320000
opls_239-241    N    0.33332996    0.66667010    0.91704980    -0.15310000
opls_239-242    N    0.00000000    0.00000000    0.77522000    -0.15720000
opls_239-243    N    0.00000000    0.00000000    0.27522000    -0.15710000
opls_185-244    H    0.92392002    0.23753003    0.49883988    0.05720000
opls_185-245    H    0.92109992    0.22580992    0.30881949    0.05670000
opls_140-246    H    0.92802004    0.30139005    0.43703048    0.04810000
opls_140-247    H    0.89144990    0.27890998    0.19977034    0.12000000
opls_140-248    H    0.93312007    0.27888000    0.12142949    0.10850000
opls_140-249    H    0.99069009    0.28930992    0.27972956    0.16620000
opls_140-250    H    0.98859986    0.29506991    0.47097982    0.16830000
opls_140-251    H    0.99716012    0.33473000    0.35471990    0.16620000
opls_140-252    H    0.97351007    0.35110007    0.15393969    0.16610000
opls_140-253    H    0.93439992    0.35164994    0.25594012    0.16610000
opls_140-254    H    0.92803002    0.33937996    0.06766044    0.16880000
opls_146-255    H    0.74915993    0.12012999    0.37257995    0.11580000
opls_910-256    H    0.74129011    0.16894011    0.48723975    0.20880000
opls_144-257    H    0.69581998    0.19098993    0.53016956    0.10560000
opls_146-258    H    0.74494998    0.28151004    0.28612041    0.11430000
opls_146-259    H    0.72479010    0.33126003    0.26877012    0.11720000
opls_146-260    H    0.63274000    0.26710993    0.57814016    0.11300000
opls_146-261    H    0.65230996    0.21695996    0.59389032    0.11370000
opls_185-262    H    0.71151000    0.05683013    0.44371968    0.05740000
opls_185-263    H    0.73043011    0.05536008    0.26691994    0.05740000
opls_140-264    H    0.70694997    0.99324990    0.50562030    0.09320000
opls_140-265    H    0.76167987    0.00054987    0.33867997    0.12240000
opls_140-266    H    0.72964997    0.99077004    0.18829041    0.08350000
opls_140-267    H    0.66442002    0.98902990    0.22076948    0.16890000
opls_140-268    H    0.64995998    0.99698996    0.39576948    0.11140000
opls_140-269    H    0.64812000    0.95144997    0.35773986    0.16880000
opls_140-270    H    0.68458003    0.92344004    0.27946018    0.16880000
opls_140-271    H    0.71255006    0.93429992    0.44475961    0.16880000
opls_140-272    H    0.73406001    0.93218008    0.27635008    0.16610000
opls_146-273    H    0.89059015    0.17052008    0.46714960    0.11580000
opls_910-274    H    0.88713996    0.13047998    0.65867032    0.20870000
opls_144-275    H    0.93407015    0.11844012    0.77921013    0.10600000
opls_146-276    H    0.89743996    0.01656991    0.61852973    0.11420000
opls_146-277    H    0.93123987    0.97899997    0.63663018    0.11490000
opls_146-278    H    0.02096005    0.07041998    0.89889032    0.11590000
opls_146-279    H    0.98773998    0.10895006    0.87556021    0.11530000
opls_185-280    H    0.76246985    0.68638993    0.49883988    0.05720000
opls_185-281    H    0.77418985    0.69528986    0.30881949    0.05670000
opls_140-282    H    0.69860998    0.62663000    0.43703048    0.04810000
opls_140-283    H    0.72109003    0.61253995    0.19977034    0.12000000
opls_140-284    H    0.72111997    0.65423995    0.12142949    0.10850000
opls_140-285    H    0.71068994    0.70137988    0.27972956    0.16610000
opls_140-286    H    0.70492994    0.69353003    0.47097982    0.16830000
opls_140-287    H    0.66526989    0.66242983    0.35471990    0.16620000
opls_140-288    H    0.64890009    0.62241001    0.15393969    0.16610000
opls_140-289    H    0.64835001    0.58274991    0.25594012    0.16610000
opls_140-290    H    0.66062003    0.58865008    0.06766044    0.16880000
opls_146-291    H    0.87987001    0.62902992    0.37257995    0.11580000
opls_910-292    H    0.83105994    0.57234996    0.48723975    0.20870000
opls_144-293    H    0.80901012    0.50483011    0.53016956    0.10560000
opls_146-294    H    0.71848985    0.46343987    0.28612041    0.11420000
opls_146-295    H    0.66874010    0.39353009    0.26877012    0.11720000
opls_146-296    H    0.73289012    0.36563007    0.57814016    0.11300000
opls_146-297    H    0.78303998    0.43535000    0.59389032    0.11370000
opls_185-298    H    0.94316993    0.65467990    0.44371968    0.05740000
opls_185-299    H    0.94464017    0.67507011    0.26691994    0.05740000
opls_140-300    H    0.00674988    0.71369982    0.50562030    0.09320000
opls_140-301    H    0.99944987    0.76112983    0.33867997    0.12240000
opls_140-302    H    0.00922996    0.73887987    0.18829041    0.08350000
opls_140-303    H    0.01096981    0.67538986    0.22076948    0.16880000
opls_140-304    H    0.00301009    0.65297004    0.39576948    0.11140000
opls_140-305    H    0.04855005    0.69666997    0.35773986    0.16880000
opls_140-306    H    0.07655998    0.76113982    0.27946018    0.16880000
opls_140-307    H    0.06569990    0.77824990    0.44475961    0.16880000
opls_140-308    H    0.06782011    0.80187997    0.27635008    0.16610000
opls_146-309    H    0.82947986    0.72006992    0.46714960    0.11580000
opls_910-310    H    0.86952014    0.75666003    0.65867032    0.20870000
opls_144-311    H    0.88155996    0.81562998    0.77921013    0.10590000
opls_146-312    H    0.98342982    0.88086983    0.61852973    0.11420000
opls_146-313    H    0.02100010    0.95223995    0.63663018    0.11490000
opls_146-314    H    0.92958004    0.95054008    0.89889032    0.11590000
opls_146-315    H    0.89104985    0.87878995    0.87556021    0.11530000
opls_185-316    H    0.31361014    0.07608004    0.49883988    0.05720000
opls_185-317    H    0.30471008    0.07889993    0.30881949    0.05670000
opls_140-318    H    0.37336997    0.07197995    0.43703048    0.04810000
opls_140-319    H    0.38746007    0.10855007    0.19977034    0.12000000
opls_140-320    H    0.34575995    0.06688005    0.12142949    0.10850000
opls_140-321    H    0.29861983    0.00930990    0.27972956    0.16610000
opls_140-322    H    0.30646995    0.01140006    0.47097982    0.16830000
opls_140-323    H    0.33756985    0.00283988    0.35471990    0.16620000
opls_140-324    H    0.37759009    0.02648993    0.15393969    0.16610000
opls_140-325    H    0.41724992    0.06559986    0.25594012    0.16620000
opls_140-326    H    0.41134996    0.07196996    0.06766044    0.16890000
opls_146-327    H    0.37097006    0.25084009    0.37257995    0.11580000
opls_910-328    H    0.42764995    0.25870992    0.48723975    0.20870000
opls_144-329    H    0.49516990    0.30417996    0.53016956    0.10560000
opls_146-330    H    0.53656017    0.25505009    0.28612041    0.11420000
opls_146-331    H    0.60647005    0.27520988    0.26877012    0.11720000
opls_146-332    H    0.63436988    0.36725999    0.57814016    0.11310000
opls_146-333    H    0.56465006    0.34769004    0.59389032    0.11370000
opls_185-334    H    0.34532007    0.28848997    0.44371968    0.05740000
opls_185-335    H    0.32493013    0.26957010    0.26691994    0.05740000
opls_140-336    H    0.28630000    0.29304999    0.50562030    0.09320000
opls_140-337    H    0.23887011    0.23832001    0.33867997    0.12240000
opls_140-338    H    0.26112007    0.27035009    0.18829041    0.08350000
opls_140-339    H    0.32461003    0.33557994    0.22076948    0.16890000
opls_140-340    H    0.34702993    0.35004000    0.39576948    0.11140000
opls_140-341    H    0.30332995    0.35188005    0.35773986    0.16880000
opls_140-342    H    0.23885984    0.31541985    0.27946018    0.16880000
opls_140-343    H    0.22174988    0.28744988    0.44475961    0.16880000
opls_140-344    H    0.19811989    0.26593995    0.27635008    0.16610000
opls_146-345    H    0.27992999    0.10941000    0.46714960    0.11580000
opls_910-346    H    0.24333990    0.11286000    0.65867032    0.20870000
opls_144-347    H    0.18436989    0.06592990    0.77921013    0.10590000
opls_146-348    H    0.11913008    0.10255997    0.61852973    0.11420000
opls_146-349    H    0.04776003    0.06876008    0.63663018    0.11490000
opls_146-350    H    0.04945990    0.97903994    0.89889032    0.11600000
opls_146-351    H    0.12120991    0.01225999    0.87556021    0.11530000
opls_185-352    H    0.07607998    0.76246997    0.99883988    0.05720000
opls_185-353    H    0.07890008    0.77419008    0.80881949    0.05670000
opls_140-354    H    0.07197996    0.69860995    0.93703048    0.04810000
opls_140-355    H    0.10855010    0.72109002    0.69977034    0.12000000
opls_140-356    H    0.06687993    0.72112000    0.62142949    0.10850000
opls_140-357    H    0.00930991    0.71069008    0.77972956    0.16610000
opls_140-358    H    0.01140014    0.70493009    0.97097982    0.16830000
opls_140-359    H    0.00283988    0.66527000    0.85471990    0.16620000
opls_140-360    H    0.02648993    0.64889993    0.65393969    0.16610000
opls_140-361    H    0.06560008    0.64835006    0.75594012    0.16620000
opls_140-362    H    0.07196998    0.66062004    0.56766044    0.16880000
opls_146-363    H    0.25084007    0.87987001    0.87257995    0.11580000
opls_910-364    H    0.25870989    0.83105989    0.98723975    0.20870000
opls_144-365    H    0.30418002    0.80901007    0.03016956    0.10560000
opls_146-366    H    0.25505002    0.71848996    0.78612041    0.11420000
opls_146-367    H    0.27520990    0.66873997    0.76877012    0.11720000
opls_146-368    H    0.36726000    0.73289007    0.07814016    0.11300000
opls_146-369    H    0.34769004    0.78304004    0.09389032    0.11370000
opls_185-370    H    0.28849000    0.94316987    0.94371968    0.05740000
opls_185-371    H    0.26956989    0.94463992    0.76691994    0.05740000
opls_140-372    H    0.29304989    0.00674981    0.00562030    0.09320000
opls_140-373    H    0.23832013    0.99945013    0.83867997    0.12240000
opls_140-374    H    0.27035003    0.00922996    0.68829041    0.08350000
opls_140-375    H    0.33557998    0.01097010    0.72076948    0.16880000
opls_140-376    H    0.35004002    0.00301004    0.89576948    0.11140000
opls_140-377    H    0.35188000    0.04855003    0.85773986    0.16880000
opls_140-378    H    0.31541997    0.07655996    0.77946018    0.16880000
opls_140-379    H    0.28744994    0.06570008    0.94475961    0.16880000
opls_140-380    H    0.26593999    0.06781992    0.77635008    0.16620000
opls_146-381    H    0.10940985    0.82947992    0.96714960    0.11580000
opls_910-382    H    0.11286004    0.86952002    0.15867032    0.20870000
opls_144-383    H    0.06592985    0.88155988    0.27921013    0.10590000
opls_146-384    H    0.10256004    0.98343009    0.11852973    0.11420000
opls_146-385    H    0.06876013    0.02100003    0.13663018    0.11490000
opls_146-386    H    0.97903995    0.92958002    0.39889032    0.11590000
opls_146-387    H    0.01226002    0.89104994    0.37556021    0.11530000
opls_185-388    H    0.23753015    0.31361007    0.99883988    0.05720000
opls_185-389    H    0.22581000    0.30470985    0.80881949    0.05670000
opls_140-390    H    0.30139002    0.37337000    0.93703048    0.04810000
opls_140-391    H    0.27890997    0.38746005    0.69977034    0.12000000
opls_140-392    H    0.27888003    0.34576005    0.62142949    0.10850000
opls_140-393    H    0.28931006    0.29862012    0.77972956    0.16610000
opls_140-394    H    0.29507006    0.30646997    0.97097982    0.16830000
opls_140-395    H    0.33472996    0.33756988    0.85471990    0.16620000
opls_140-396    H    0.35109991    0.37758999    0.65393969    0.16610000
opls_140-397    H    0.35164999    0.41725009    0.75594012    0.16610000
opls_140-398    H    0.33937997    0.41134992    0.56766044    0.16880000
opls_146-399    H    0.12012999    0.37097008    0.87257995    0.11580000
opls_910-400    H    0.16894006    0.42765004    0.98723975    0.20870000
opls_144-401    H    0.19098988    0.49516989    0.03016956    0.10560000
opls_146-402    H    0.28151000    0.53655983    0.78612041    0.11420000
opls_146-403    H    0.33125990    0.60646991    0.76877012    0.11720000
opls_146-404    H    0.26710988    0.63436993    0.07814016    0.11300000
opls_146-405    H    0.21696002    0.56465000    0.09389032    0.11370000
opls_185-406    H    0.05683007    0.34532010    0.94371968    0.05740000
opls_185-407    H    0.05535983    0.32492989    0.76691994    0.05740000
opls_140-408    H    0.99324997    0.28629989    0.00562030    0.09320000
opls_140-409    H    0.00054998    0.23886988    0.83867997    0.12240000
opls_140-410    H    0.99077004    0.26112013    0.68829041    0.08350000
opls_140-411    H    0.98903004    0.32460984    0.72076948    0.16880000
opls_140-412    H    0.99698991    0.34702996    0.89576948    0.11140000
opls_140-413    H    0.95144995    0.30333003    0.85773986    0.16880000
opls_140-414    H    0.92343987    0.23885989    0.77946018    0.16880000
opls_140-415    H    0.93430010    0.22175010    0.94475961    0.16890000
opls_140-416    H    0.93217989    0.19812003    0.77635008    0.16610000
opls_146-417    H    0.17052014    0.27993008    0.96714960    0.11580000
opls_910-418    H    0.13047986    0.24333997    0.15867032    0.20870000
opls_144-419    H    0.11844004    0.18437002    0.27921013    0.10590000
opls_146-420    H    0.01657003    0.11912988    0.11852973    0.11420000
opls_146-421    H    0.97899990    0.04776005    0.13663018    0.11490000
opls_146-422    H    0.07041996    0.04945992    0.39889032    0.11590000
opls_146-423    H    0.10895015    0.12121005    0.37556021    0.11530000
opls_185-424    H    0.68638986    0.92391996    0.99883988    0.05720000
opls_185-425    H    0.69528992    0.92110007    0.80881949    0.05670000
opls_140-426    H    0.62663003    0.92802005    0.93703048    0.04810000
opls_140-427    H    0.61253993    0.89144993    0.69977034    0.12010000
opls_140-428    H    0.65424005    0.93311995    0.62142949    0.10860000
opls_140-429    H    0.70138003    0.99068980    0.77972956    0.16610000
opls_140-430    H    0.69353005    0.98859994    0.97097982    0.16830000
opls_140-431    H    0.66243000    0.99715983    0.85471990    0.16610000
opls_140-432    H    0.62240991    0.97351007    0.65393969    0.16610000
opls_140-433    H    0.58274994    0.93439985    0.75594012    0.16610000
opls_140-434    H    0.58865004    0.92803004    0.56766044    0.16880000
opls_146-435    H    0.62902994    0.74915991    0.87257995    0.11580000
opls_910-436    H    0.57235005    0.74129008    0.98723975    0.20870000
opls_144-437    H    0.50483010    0.69582004    0.03016956    0.10570000
opls_146-438    H    0.46343983    0.74494991    0.78612041    0.11420000
opls_146-439    H    0.39352981    0.72478982    0.76877012    0.11720000
opls_146-440    H    0.36563012    0.63274001    0.07814016    0.11300000
opls_146-441    H    0.43534994    0.65230996    0.09389032    0.11370000
opls_185-442    H    0.65467993    0.71151003    0.94371968    0.05740000
opls_185-443    H    0.67506987    0.73042990    0.76691994    0.05740000
opls_140-444    H    0.71370000    0.70695001    0.00562030    0.09320000
opls_140-445    H    0.76112989    0.76167999    0.83867997    0.12240000
opls_140-446    H    0.73887993    0.72964991    0.68829041    0.08350000
opls_140-447    H    0.67538997    0.66442006    0.72076948    0.16890000
opls_140-448    H    0.65297007    0.64996000    0.89576948    0.11150000
opls_140-449    H    0.69667005    0.64811995    0.85773986    0.16880000
opls_140-450    H    0.76114002    0.68457986    0.77946018    0.16880000
opls_140-451    H    0.77824997    0.71254982    0.94475961    0.16880000
opls_140-452    H    0.80188011    0.73406005    0.77635008    0.16620000
opls_146-453    H    0.72007001    0.89059000    0.96714960    0.11580000
opls_910-454    H    0.75666010    0.88714000    0.15867032    0.20870000
opls_144-455    H    0.81562997    0.93406981    0.27921013    0.10590000
opls_146-456    H    0.88086992    0.89744003    0.11852973    0.11420000
opls_146-457    H    0.95223997    0.93123992    0.13663018    0.11490000
opls_146-458    H    0.95054010    0.02096006    0.39889032    0.11590000
opls_146-459    H    0.87879009    0.98774001    0.37556021    0.11530000
