#======================================================================
# Crystal Data Generated By AuToFF
#----------------------------------------------------------------------

data_AuToFF_phase_1

_cell_length_a                         25.4941
_cell_length_b                         25.4941
_cell_length_c                         12.5420
_cell_angle_alpha                      90.00
_cell_angle_beta                       90.00
_cell_angle_gamma                      120.00
_symmetry_space_group_name_H-M_alt     'P 1'
_symmetry_space_group_IT_number        1

loop_
_space_group_symop_operation_xyz
   'x, y, z'

loop_
   _atom_site_label
   _atom_site_type_symbol
   _atom_site_fract_x
   _atom_site_fract_y
   _atom_site_fract_z
   _atom_site_charge
opls_700-0    C    0.04529984    0.06154981    0.00095997    -0.02660000
opls_700-1    C    0.09339014    0.12670992    0.00990033    0.07290000
opls_145-2    C    0.10162008    0.16874984    0.92968984    -0.11030000
opls_145-3    C    0.14178998    0.22996992    0.94540982    -0.12220000
opls_700-4    C    0.17470982    0.25047988    0.04160022    0.07340000
opls_145-5    C    0.16931987    0.20794989    0.11878010    -0.12210000
opls_145-6    C    0.12880989    0.14660978    0.10315978    -0.12160000
opls_142-7    C    0.88455007    0.20215014    0.92439005    0.07670000
opls_145-8    C    0.22823007    0.41455006    0.02228034    0.21410000
opls_145-9    C    0.19187013    0.44153010    0.00942035    -0.16440000
opls_523-10    C    0.21742018    0.50369001    0.02108037    -0.12160000
opls_700-11    C    0.27991995    0.54026987    0.04169989    0.00170000
opls_523-12    C    0.31581990    0.51303981    0.05612024    -0.12220000
opls_145-13    C    0.29038008    0.45063985    0.04741987    -0.17040000
opls_531-14    C    0.30792000    0.60661982    0.04282012    0.39210000
opls_700-15    C    0.95450977    0.93828985    0.99990990    -0.02390000
opls_700-16    C    0.90847991    0.87261975    0.98236964    0.06710000
opls_145-17    C    0.86442990    0.83603988    0.05798039    -0.12260000
opls_145-18    C    0.82616004    0.77448011    0.03850981    -0.11950000
opls_700-19    C    0.83086999    0.74803995    0.94265986    0.07230000
opls_145-20    C    0.87357996    0.78534994    0.86568011    -0.12220000
opls_145-21    C    0.91169997    0.84669004    0.88501993    -0.12200000
opls_142-22    C    0.10716991    0.79160986    0.06466991    0.07810000
opls_145-23    C    0.73932007    0.58131018    0.97878010    0.21230000
opls_145-24    C    0.78290017    0.56235014    0.97992984    -0.17200000
opls_523-25    C    0.76449002    0.50105985    0.97677005    -0.12170000
opls_700-26    C    0.70246010    0.45706011    0.97125020    -0.00510000
opls_523-27    C    0.65943998    0.47645995    0.96662972    -0.12250000
opls_145-28    C    0.67721003    0.53766010    0.97243980    -0.16570000
opls_531-29    C    0.68354000    0.39205989    0.97291022    0.37730000
opls_700-30    C    0.71196994    0.39487982    0.33429038    -0.02660000
opls_700-31    C    0.76005986    0.46003993    0.34322995    0.07290000
opls_145-32    C    0.76828980    0.50207985    0.26302025    -0.11030000
opls_145-33    C    0.80846009    0.56329993    0.27874023    -0.12220000
opls_700-34    C    0.84137992    0.58380989    0.37492984    0.07340000
opls_145-35    C    0.83598997    0.54127990    0.45210971    -0.12210000
opls_145-36    C    0.79548000    0.47993980    0.43649019    -0.12160000
opls_142-37    C    0.55122018    0.53548015    0.25771966    0.07670000
opls_145-38    C    0.89490018    0.74788007    0.35560995    0.21410000
opls_145-39    C    0.85854023    0.77486011    0.34274996    -0.16440000
opls_523-40    C    0.88408989    0.83702002    0.35440998    -0.12160000
opls_700-41    C    0.94659005    0.87359988    0.37503030    0.00170000
opls_523-42    C    0.98249001    0.84636982    0.38944985    -0.12220000
opls_145-43    C    0.95704979    0.78396986    0.38075028    -0.17040000
opls_531-44    C    0.97459010    0.93994983    0.37614974    0.39210000
opls_700-45    C    0.62117988    0.27161986    0.33324031    -0.02390000
opls_700-46    C    0.57515001    0.20594976    0.31570005    0.06710000
opls_145-47    C    0.53110000    0.16936989    0.39131000    -0.12260000
opls_145-48    C    0.49283014    0.10781012    0.37184022    -0.11950000
opls_700-49    C    0.49754010    0.08136996    0.27599027    0.07230000
opls_145-50    C    0.54025007    0.11867995    0.19900973    -0.12220000
opls_145-51    C    0.57837008    0.18002006    0.21835034    -0.12200000
opls_142-52    C    0.77384002    0.12493987    0.39800032    0.07810000
opls_145-53    C    0.40598995    0.91463974    0.31210971    0.21230000
opls_145-54    C    0.44956989    0.89568015    0.31326025    -0.17200000
opls_523-55    C    0.43116012    0.83438986    0.31009967    -0.12170000
opls_700-56    C    0.36913021    0.79039013    0.30457981    -0.00510000
opls_523-57    C    0.32611008    0.80978996    0.29996013    -0.12250000
opls_145-58    C    0.34388013    0.87099011    0.30577021    -0.16570000
opls_531-59    C    0.35021010    0.72538990    0.30623983    0.37730000
opls_700-60    C    0.37862973    0.72821980    0.66763036    -0.02660000
opls_700-61    C    0.42672004    0.79337991    0.67656993    0.07290000
opls_145-62    C    0.43494998    0.83541982    0.59636023    -0.11030000
opls_145-63    C    0.47511988    0.89663990    0.61208021    -0.12220000
opls_700-64    C    0.50804010    0.91714987    0.70826981    0.07340000
opls_145-65    C    0.50264976    0.87461988    0.78544969    -0.12210000
opls_145-66    C    0.46213979    0.81327977    0.76983017    -0.12160000
opls_142-67    C    0.21787997    0.86882013    0.59105964    0.07670000
opls_145-68    C    0.56155997    0.08122004    0.68894993    0.21410000
opls_145-69    C    0.52520002    0.10820009    0.67608994    -0.16440000
opls_523-70    C    0.55075007    0.17036000    0.68774996    -0.12160000
opls_700-71    C    0.61324984    0.20693986    0.70837028    0.00170000
opls_523-72    C    0.64914980    0.17970980    0.72278983    -0.12220000
opls_145-73    C    0.62370997    0.11730984    0.71409026    -0.17040000
opls_531-74    C    0.64124989    0.27328981    0.70948971    0.39210000
opls_700-75    C    0.28784006    0.60495984    0.66658029    -0.02390000
opls_700-76    C    0.24180980    0.53928974    0.64904003    0.06710000
opls_145-77    C    0.19775979    0.50270987    0.72464998    -0.12260000
opls_145-78    C    0.15948993    0.44115009    0.70518019    -0.11950000
opls_700-79    C    0.16419989    0.41470994    0.60933025    0.07230000
opls_145-80    C    0.20690986    0.45201993    0.53234970    -0.12220000
opls_145-81    C    0.24502987    0.51336003    0.55169032    -0.12200000
opls_142-82    C    0.44049981    0.45827985    0.73134030    0.07810000
opls_145-83    C    0.07264997    0.24798017    0.64544969    0.21230000
opls_145-84    C    0.11623007    0.22902013    0.64660022    -0.17200000
opls_523-85    C    0.09781991    0.16772984    0.64343964    -0.12170000
opls_700-86    C    0.03579000    0.12373010    0.63791979    -0.00510000
opls_523-87    C    0.99276987    0.14312994    0.63330011    -0.12250000
opls_145-88    C    0.01053992    0.20433009    0.63911019    -0.16570000
opls_531-89    C    0.01686989    0.05872988    0.63957981    0.37730000
opls_700-90    C    0.93845001    0.98374983    0.00095997    -0.02660000
opls_700-91    C    0.87328976    0.96667986    0.00990033    0.07290000
opls_145-92    C    0.83125005    0.93287011    0.92968984    -0.11030000
opls_145-93    C    0.77003003    0.91181980    0.94540982    -0.12220000
opls_700-94    C    0.74951995    0.92423004    0.04160022    0.07430000
opls_145-95    C    0.79204985    0.96136973    0.11878010    -0.12210000
opls_145-96    C    0.85339005    0.98219991    0.10315978    -0.12160000
opls_142-97    C    0.79784984    0.68239974    0.92439005    0.07670000
opls_145-98    C    0.58544981    0.81367971    0.02228034    0.21410000
opls_145-99    C    0.55847002    0.75033992    0.00942035    -0.16440000
opls_523-100    C    0.49630990    0.71373017    0.02108037    -0.12160000
opls_700-101    C    0.45973007    0.73964990    0.04169989    0.00170000
opls_523-102    C    0.48695999    0.80277998    0.05612024    -0.12220000
opls_145-103    C    0.54935989    0.83973986    0.04741987    -0.17040000
opls_531-104    C    0.39337988    0.70130000    0.04282012    0.39210000
opls_700-105    C    0.06170976    0.01621982    0.99990990    -0.02390000
opls_700-106    C    0.12738011    0.03586016    0.98236964    0.06710000
opls_145-107    C    0.16395985    0.02839001    0.05798039    -0.12260000
opls_145-108    C    0.22551995    0.05168005    0.03850981    -0.11950000
opls_700-109    C    0.25196029    0.08283021    0.94265986    0.07230000
opls_145-110    C    0.21465015    0.08823002    0.86568011    -0.12220000
opls_145-111    C    0.15330991    0.06501019    0.88501993    -0.12200000
opls_142-112    C    0.20839005    0.31555982    0.06466991    0.07810000
opls_145-113    C    0.41868987    0.15801000    0.97878010    0.21230000
opls_145-114    C    0.43764992    0.22054991    0.97992984    -0.17200000
opls_523-115    C    0.49893997    0.26343001    0.97677005    -0.12170000
opls_700-116    C    0.54293989    0.24539983    0.97125020    -0.00510000
opls_523-117    C    0.52354013    0.18297994    0.96662972    -0.12250000
opls_145-118    C    0.46233994    0.13954999    0.97243980    -0.16570000
opls_531-119    C    0.60793982    0.29147987    0.97291022    0.37730000
opls_700-120    C    0.60512011    0.31707984    0.33429038    -0.02660000
opls_700-121    C    0.53995987    0.30000987    0.34322995    0.07290000
opls_145-122    C    0.49792016    0.26620012    0.26302025    -0.11030000
opls_145-123    C    0.43669974    0.24514982    0.27874023    -0.12220000
opls_700-124    C    0.41619006    0.25756006    0.37492984    0.07340000
opls_145-125    C    0.45872018    0.29470019    0.45210971    -0.12210000
opls_145-126    C    0.52005977    0.31552992    0.43649019    -0.12160000
opls_142-127    C    0.46452017    0.01573021    0.25771966    0.07670000
opls_145-128    C    0.25212014    0.14701017    0.35560995    0.21410000
opls_145-129    C    0.22514012    0.08366993    0.34274996    -0.16440000
opls_523-130    C    0.16298000    0.04706018    0.35440998    -0.12160000
opls_700-131    C    0.12639978    0.07297992    0.37503030    0.00170000
opls_523-132    C    0.15363009    0.13611000    0.38944985    -0.12220000
opls_145-133    C    0.21602999    0.17306987    0.38075028    -0.17040000
opls_531-134    C    0.06004999    0.03463001    0.37614974    0.39210000
opls_700-135    C    0.72837987    0.34954983    0.33324031    -0.02390000
opls_700-136    C    0.79405022    0.36919017    0.31570005    0.06710000
opls_145-137    C    0.83062996    0.36172002    0.39131000    -0.12260000
opls_145-138    C    0.89219005    0.38501006    0.37184022    -0.11950000
opls_700-139    C    0.91862977    0.41615976    0.27599027    0.07230000
opls_145-140    C    0.88131987    0.42156003    0.19900973    -0.12220000
opls_145-141    C    0.81997979    0.39833975    0.21835034    -0.12200000
opls_142-142    C    0.87505976    0.64888983    0.39800032    0.07810000
opls_145-143    C    0.08535997    0.49134001    0.31210971    0.21230000
opls_145-144    C    0.10432002    0.55387992    0.31326025    -0.17200000
opls_523-145    C    0.16561008    0.59676002    0.31009967    -0.12170000
opls_700-146    C    0.20961000    0.57872984    0.30457981    -0.00510000
opls_523-147    C    0.19020985    0.51630996    0.29996013    -0.12250000
opls_145-148    C    0.12901005    0.47288000    0.30577021    -0.16570000
opls_531-149    C    0.27460992    0.62480988    0.30623983    0.37730000
opls_700-150    C    0.27177990    0.65041982    0.66763036    -0.02660000
opls_700-151    C    0.20662005    0.63334985    0.67656993    0.07290000
opls_145-152    C    0.16457995    0.59954010    0.59636023    -0.11030000
opls_145-153    C    0.10335993    0.57848979    0.61208021    -0.12210000
opls_700-154    C    0.08284985    0.59090003    0.70826981    0.07340000
opls_145-155    C    0.12537997    0.62804017    0.78544969    -0.12210000
opls_145-156    C    0.18671995    0.64886990    0.76983017    -0.12160000
opls_142-157    C    0.13117996    0.34907018    0.59105964    0.07670000
opls_145-158    C    0.91877993    0.48035015    0.68894993    0.21410000
opls_145-159    C    0.89179991    0.41700991    0.67608994    -0.16440000
opls_523-160    C    0.82964018    0.38040015    0.68774996    -0.12160000
opls_700-161    C    0.79305996    0.40631989    0.70837028    0.00170000
opls_523-162    C    0.82028988    0.46944997    0.72278983    -0.12220000
opls_145-163    C    0.88268978    0.50640984    0.71409026    -0.17040000
opls_531-164    C    0.72671017    0.36796998    0.70948971    0.39210000
opls_700-165    C    0.39504005    0.68288981    0.66658029    -0.02390000
opls_700-166    C    0.46071000    0.70253015    0.64904003    0.06710000
opls_145-167    C    0.49729014    0.69506000    0.72464998    -0.12260000
opls_145-168    C    0.55884984    0.71835004    0.70518019    -0.11950000
opls_700-169    C    0.58528996    0.74949974    0.60933025    0.07230000
opls_145-170    C    0.54798005    0.75490001    0.53234970    -0.12220000
opls_145-171    C    0.48663997    0.73167972    0.55169032    -0.12200000
opls_142-172    C    0.54171994    0.98222980    0.73134030    0.07810000
opls_145-173    C    0.75202015    0.82467998    0.64544969    0.21230000
opls_145-174    C    0.77097981    0.88721990    0.64660022    -0.17200000
opls_523-175    C    0.83226987    0.93010000    0.64343964    -0.12170000
opls_700-176    C    0.87626979    0.91206982    0.63791979    -0.00510000
opls_523-177    C    0.85687003    0.84964993    0.63330011    -0.12250000
opls_145-178    C    0.79566984    0.80621998    0.63911019    -0.16570000
opls_531-179    C    0.94127010    0.95814986    0.63957981    0.37730000
opls_700-180    C    0.01624993    0.95469990    0.00095997    -0.02660000
opls_700-181    C    0.03331987    0.90660977    0.00990033    0.07290000
opls_145-182    C    0.06712987    0.89838006    0.92968984    -0.11030000
opls_145-183    C    0.08817976    0.85820983    0.94540982    -0.12220000
opls_700-184    C    0.07577023    0.82529008    0.04160022    0.07340000
opls_145-185    C    0.03863006    0.83067993    0.11878010    -0.12210000
opls_145-186    C    0.01779983    0.87118985    0.10315978    -0.12160000
opls_142-187    C    0.31760009    0.11545012    0.92439005    0.07670000
opls_145-188    C    0.18631989    0.77176978    0.02228034    0.21410000
opls_145-189    C    0.24965985    0.80812998    0.00942035    -0.16440000
opls_523-190    C    0.28626993    0.78257983    0.02108037    -0.12160000
opls_700-191    C    0.26034976    0.72007977    0.04169989    0.00170000
opls_523-192    C    0.19721989    0.68417975    0.05612024    -0.12220000
opls_145-193    C    0.16025981    0.70961984    0.04741987    -0.17040000
opls_531-194    C    0.29869989    0.69207973    0.04282012    0.39210000
opls_700-195    C    0.98377984    0.04548987    0.99990990    -0.02390000
opls_700-196    C    0.96413998    0.09152009    0.98236964    0.06710000
opls_145-197    C    0.97160986    0.13557011    0.05798039    -0.12260000
opls_145-198    C    0.94832001    0.17383985    0.03850981    -0.11950000
opls_700-199    C    0.91717011    0.16912984    0.94265986    0.07230000
opls_145-200    C    0.91176988    0.12642004    0.86568011    -0.12220000
opls_145-201    C    0.93498973    0.08829977    0.88501993    -0.12200000
opls_142-202    C    0.68443981    0.89282987    0.06466991    0.07810000
opls_145-203    C    0.84199006    0.26067983    0.97878010    0.21230000
opls_145-204    C    0.77944991    0.21709995    0.97992984    -0.17200000
opls_523-205    C    0.73657001    0.23551014    0.97677005    -0.12170000
opls_700-206    C    0.75460000    0.29754005    0.97125020    -0.00510000
opls_523-207    C    0.81701989    0.34056011    0.96662972    -0.12250000
opls_145-208    C    0.86045003    0.32278991    0.97243980    -0.16570000
opls_531-209    C    0.70851996    0.31645978    0.97291022    0.37730000
opls_700-210    C    0.68292004    0.28802992    0.33429038    -0.02660000
opls_700-211    C    0.69998997    0.23993978    0.34322995    0.07290000
opls_145-212    C    0.73379997    0.23171007    0.26302025    -0.11030000
opls_145-213    C    0.75484986    0.19153984    0.27874023    -0.12220000
opls_700-214    C    0.74243995    0.15862009    0.37492984    0.07340000
opls_145-215    C    0.70530016    0.16400994    0.45210971    -0.12210000
opls_145-216    C    0.68446993    0.20451986    0.43649019    -0.12160000
opls_142-217    C    0.98427019    0.44878013    0.25771966    0.07670000
opls_145-218    C    0.85299000    0.10509979    0.35560995    0.21410000
opls_145-219    C    0.91632996    0.14145999    0.34274996    -0.16440000
opls_523-220    C    0.95294003    0.11590984    0.35440998    -0.12160000
opls_700-221    C    0.92701987    0.05340978    0.37503030    0.00170000
opls_523-222    C    0.86389022    0.01751022    0.38944985    -0.12220000
opls_145-223    C    0.82692991    0.04294985    0.38075028    -0.17040000
opls_531-224    C    0.96537022    0.02541019    0.37614974    0.39210000
opls_700-225    C    0.65044995    0.37881989    0.33324031    -0.02390000
opls_700-226    C    0.63081009    0.42485010    0.31570005    0.06710000
opls_145-227    C    0.63827996    0.46890012    0.39131000    -0.12260000
opls_145-228    C    0.61499012    0.50716986    0.37184022    -0.11950000
opls_700-229    C    0.58383983    0.50245985    0.27599027    0.07230000
opls_145-230    C    0.57843999    0.45975006    0.19900973    -0.12220000
opls_145-231    C    0.60165983    0.42162978    0.21835034    -0.12200000
opls_142-232    C    0.35110992    0.22615988    0.39800032    0.07810000
opls_145-233    C    0.50865977    0.59400984    0.31210971    0.21230000
opls_145-234    C    0.44612002    0.55042997    0.31326025    -0.17200000
opls_523-235    C    0.40324012    0.56884015    0.31009967    -0.12170000
opls_700-236    C    0.42127011    0.63087007    0.30457981    -0.00510000
opls_523-237    C    0.48368999    0.67389012    0.29996013    -0.12250000
opls_145-238    C    0.52712014    0.65611992    0.30577021    -0.16570000
opls_531-239    C    0.37519006    0.64978980    0.30623983    0.37730000
opls_700-240    C    0.34957983    0.62136989    0.66763036    -0.02660000
opls_700-241    C    0.36664976    0.57327975    0.67656993    0.07290000
opls_145-242    C    0.40046015    0.56505004    0.59636023    -0.11030000
opls_145-243    C    0.42151005    0.52487982    0.61208021    -0.12220000
opls_700-244    C    0.40910013    0.49196007    0.70826981    0.07340000
opls_145-245    C    0.37195995    0.49734992    0.78544969    -0.12210000
opls_145-246    C    0.35113012    0.53785984    0.76983017    -0.12160000
opls_142-247    C    0.65092998    0.78212010    0.59105964    0.07670000
opls_145-248    C    0.51964979    0.43843977    0.68894993    0.21410000
opls_145-249    C    0.58299014    0.47479996    0.67608994    -0.16440000
opls_523-250    C    0.61959982    0.44924981    0.68774996    -0.12160000
opls_700-251    C    0.59368005    0.38674976    0.70837028    0.00170000
opls_523-252    C    0.53055001    0.35085019    0.72278983    -0.12220000
opls_145-253    C    0.49359010    0.37628983    0.71409026    -0.17040000
opls_531-254    C    0.63203001    0.35875017    0.70948971    0.39210000
opls_700-255    C    0.31710974    0.71215986    0.66658029    -0.02390000
opls_700-256    C    0.29746988    0.75819008    0.64904003    0.06710000
opls_145-257    C    0.30494015    0.80224009    0.72464998    -0.12260000
opls_145-258    C    0.28164991    0.84050983    0.70518019    -0.11950000
opls_700-259    C    0.25050001    0.83579983    0.60933025    0.07230000
opls_145-260    C    0.24510017    0.79309003    0.53234970    -0.12220000
opls_145-261    C    0.26832001    0.75496976    0.55169032    -0.12200000
opls_142-262    C    0.01777010    0.55949986    0.73134030    0.07810000
opls_145-263    C    0.17531996    0.92734982    0.64544969    0.21230000
opls_145-264    C    0.11277981    0.88376994    0.64660022    -0.17200000
opls_523-265    C    0.06989991    0.90218013    0.64343964    -0.12170000
opls_700-266    C    0.08792990    0.96421004    0.63791979    -0.00510000
opls_523-267    C    0.15035018    0.00723010    0.63330011    -0.12250000
opls_145-268    C    0.19377993    0.98945990    0.63911019    -0.16570000
opls_531-269    C    0.04184985    0.98312977    0.63957981    0.37730000
opls_750-270    N    0.20118988    0.35227012    0.00319965    -0.27460000
opls_520-271    N    0.36918980    0.64034986    0.04219981    -0.42850000
opls_750-272    N    0.75918972    0.64343974    0.99099027    -0.26670000
opls_520-273    N    0.62349014    0.35077999    0.97374023    -0.41520000
opls_750-274    N    0.86785998    0.68560013    0.33653006    -0.27460000
opls_520-275    N    0.03585991    0.97367987    0.37553022    -0.42850000
opls_750-276    N    0.42585982    0.97676975    0.32431989    -0.26680000
opls_520-277    N    0.29015986    0.68411000    0.30706985    -0.41510000
opls_750-278    N    0.53452017    0.01894011    0.66987004    -0.27460000
opls_520-279    N    0.70252009    0.30701985    0.70887020    -0.42850000
opls_750-280    N    0.09252023    0.31011018    0.65765986    -0.26680000
opls_520-281    N    0.95682004    0.01744998    0.64040982    -0.41520000
opls_750-282    N    0.64773000    0.84891981    0.00319965    -0.27450000
opls_520-283    N    0.35964981    0.72883986    0.04219981    -0.42850000
opls_750-284    N    0.35656016    0.11574995    0.99099027    -0.26680000
opls_520-285    N    0.64921997    0.27271006    0.97374023    -0.41520000
opls_750-286    N    0.31440010    0.18224982    0.33653006    -0.27460000
opls_520-287    N    0.02631991    0.06216987    0.37553022    -0.42850000
opls_750-288    N    0.02322988    0.44907997    0.32431989    -0.26680000
opls_520-289    N    0.31589007    0.60604007    0.30706985    -0.41520000
opls_750-290    N    0.98105989    0.51558980    0.66987004    -0.27460000
opls_520-291    N    0.69298009    0.39550985    0.70887020    -0.42850000
opls_750-292    N    0.68989006    0.78241994    0.65765986    -0.26680000
opls_520-293    N    0.98254986    0.93938005    0.64040982    -0.41520000
opls_750-294    N    0.15108013    0.79881007    0.00319965    -0.27460000
opls_520-295    N    0.27115977    0.63080983    0.04219981    -0.42850000
opls_750-296    N    0.88424990    0.24080985    0.99099027    -0.26680000
opls_520-297    N    0.72728989    0.37650995    0.97374023    -0.41520000
opls_750-298    N    0.81775023    0.13214008    0.33653006    -0.27460000
opls_520-299    N    0.93782988    0.96413984    0.37553022    -0.42660000
opls_750-300    N    0.55092000    0.57413987    0.32431989    -0.26680000
opls_520-301    N    0.39395999    0.70983996    0.30706985    -0.41520000
opls_750-302    N    0.48441002    0.46548005    0.66987004    -0.27460000
opls_520-303    N    0.60449006    0.29747982    0.70887020    -0.42840000
opls_750-304    N    0.21757979    0.90747984    0.65765986    -0.26680000
opls_520-305    N    0.06061978    0.04317994    0.64040982    -0.41520000
opls_146-306    H    0.07539998    0.15338016    0.85642003    0.11820000
opls_146-307    H    0.14661994    0.26265007    0.88466034    0.11380000
opls_146-308    H    0.19527014    0.22327020    0.19256977    0.11410000
opls_146-309    H    0.12317005    0.11406008    0.16459974    0.11730000
opls_144-310    H    0.85653006    0.18934993    0.85042976    0.04720000
opls_146-311    H    0.14387005    0.41314009    0.99162016    0.11530000
opls_526-312    H    0.18959991    0.52478017    0.01169032    0.11430000
opls_526-313    H    0.36395013    0.54137004    0.07332004    0.11330000
opls_146-314    H    0.31858999    0.42995008    0.05666002    0.11410000
opls_146-315    H    0.86110985    0.85574001    0.13298039    0.11410000
opls_146-316    H    0.79328993    0.74625994    0.09876017    0.11290000
opls_146-317    H    0.87756008    0.76571005    0.79094004    0.11480000
opls_146-318    H    0.94477001    0.87468012    0.82492027    0.11390000
opls_144-319    H    0.09549988    0.76483998    0.14000000    0.04720000
opls_146-320    H    0.83089013    0.59589991    0.98588024    0.11430000
opls_526-321    H    0.79821013    0.48671017    0.97931032    0.11410000
opls_526-322    H    0.61153009    0.44282004    0.95939962    0.11310000
opls_146-323    H    0.64354001    0.55201974    0.96959974    0.11400000
opls_146-324    H    0.74207008    0.48671017    0.18974964    0.11820000
opls_146-325    H    0.81329005    0.59598008    0.21798995    0.11380000
opls_146-326    H    0.86194001    0.55659976    0.52590018    0.11410000
opls_146-327    H    0.78984015    0.44739009    0.49793015    0.11730000
opls_144-328    H    0.52320017    0.52267994    0.18376017    0.04720000
opls_146-329    H    0.81054015    0.74647010    0.32494977    0.11530000
opls_526-330    H    0.85626979    0.85810973    0.34501993    0.11380000
opls_526-331    H    0.03061984    0.87470005    0.40664966    0.11330000
opls_146-332    H    0.98526010    0.76328009    0.38998963    0.11410000
opls_146-333    H    0.52777996    0.18907002    0.46631000    0.11410000
opls_146-334    H    0.45996004    0.07958995    0.43208978    0.11290000
opls_146-335    H    0.54423018    0.09904006    0.12426965    0.11480000
opls_146-336    H    0.61144012    0.20801013    0.15824988    0.11390000
opls_144-337    H    0.76216998    0.09816999    0.47332961    0.04720000
opls_146-338    H    0.49755984    0.92922992    0.31920985    0.11430000
opls_526-339    H    0.46488001    0.82003973    0.31263993    0.11410000
opls_526-340    H    0.27820019    0.77615005    0.29273003    0.11310000
opls_146-341    H    0.31020972    0.88534976    0.30293015    0.11400000
opls_146-342    H    0.40873026    0.82005015    0.52308962    0.11820000
opls_146-343    H    0.47994984    0.92932005    0.55132993    0.11380000
opls_146-344    H    0.52859980    0.88993973    0.85924015    0.11410000
opls_146-345    H    0.45649994    0.78073007    0.83127013    0.11730000
opls_144-346    H    0.18985996    0.85601992    0.51710014    0.04720000
opls_146-347    H    0.47719994    0.07981008    0.65828975    0.11530000
opls_526-348    H    0.52293020    0.19145016    0.67835991    0.11380000
opls_526-349    H    0.69728002    0.20804002    0.73998963    0.11330000
opls_146-350    H    0.65191989    0.09662007    0.72332961    0.11410000
opls_146-351    H    0.19444014    0.52241000    0.79964998    0.11410000
opls_146-352    H    0.12661982    0.41292993    0.76542976    0.11290000
opls_146-353    H    0.21088997    0.43238004    0.45760963    0.11480000
opls_146-354    H    0.27809991    0.54135011    0.49158986    0.11390000
opls_144-355    H    0.42883016    0.43150996    0.80667039    0.04720000
opls_146-356    H    0.16422002    0.26256990    0.65254983    0.11430000
opls_526-357    H    0.13154003    0.15338016    0.64597991    0.11410000
opls_526-358    H    0.94485998    0.10949003    0.62607000    0.11310000
opls_146-359    H    0.97687013    0.21869019    0.63627013    0.11400000
opls_146-360    H    0.84661988    0.92201975    0.85642003    0.11820000
opls_146-361    H    0.73734988    0.88397014    0.88466034    0.11380000
opls_146-362    H    0.77672999    0.97199996    0.19256977    0.11410000
opls_146-363    H    0.88593998    0.00910975    0.16459974    0.11730000
opls_144-364    H    0.81065018    0.66717999    0.85042976    0.04720000
opls_146-365    H    0.58686013    0.73072993    0.99162016    0.11530000
opls_526-366    H    0.47521979    0.66481978    0.01169032    0.11430000
opls_526-367    H    0.45862985    0.82257975    0.07332004    0.11330000
opls_146-368    H    0.57004979    0.88863983    0.05666002    0.11410000
opls_146-369    H    0.14426007    0.00536992    0.13298039    0.11410000
opls_146-370    H    0.25373995    0.04702983    0.09876017    0.11290000
opls_146-371    H    0.23429008    0.11184979    0.79094004    0.11480000
opls_146-372    H    0.12531989    0.07008978    0.82492027    0.11390000
opls_144-373    H    0.23515988    0.33066000    0.14000000    0.04720000
opls_146-374    H    0.40410022    0.23499018    0.98588024    0.11430000
opls_526-375    H    0.51328986    0.31149976    0.97931032    0.11410000
opls_526-376    H    0.55718007    0.16870998    0.95939962    0.11310000
opls_146-377    H    0.44798017    0.09152009    0.96959974    0.11400000
opls_146-378    H    0.51328999    0.25534976    0.18974964    0.11820000
opls_146-379    H    0.40401998    0.21730015    0.21798995    0.11380000
opls_146-380    H    0.44340010    0.30532997    0.52590018    0.11410000
opls_146-381    H    0.55260969    0.34243976    0.49793015    0.11730000
opls_144-382    H    0.47731989    0.00051000    0.18376017    0.04720000
opls_146-383    H    0.25352985    0.06405994    0.32494977    0.11530000
opls_526-384    H    0.14188990    0.99814979    0.34501993    0.11430000
opls_526-385    H    0.12529995    0.15590977    0.40664966    0.11330000
opls_146-386    H    0.23671989    0.22196984    0.38998963    0.11410000
opls_146-387    H    0.81092978    0.33869993    0.46631000    0.11410000
opls_146-388    H    0.92041005    0.38035984    0.43208978    0.11290000
opls_146-389    H    0.90095980    0.44517980    0.12426965    0.11480000
opls_146-390    H    0.79199000    0.40341979    0.15824988    0.11390000
opls_144-391    H    0.90182999    0.66399001    0.47332961    0.04720000
opls_146-392    H    0.07076971    0.56831973    0.31920985    0.11330000
opls_526-393    H    0.17995997    0.64482978    0.31263993    0.11410000
opls_526-394    H    0.22385018    0.50203999    0.29273003    0.11310000
opls_146-395    H    0.11464988    0.42485010    0.30293015    0.11400000
opls_146-396    H    0.17994978    0.58868974    0.52308962    0.11820000
opls_146-397    H    0.07068016    0.55064012    0.55132993    0.11380000
opls_146-398    H    0.11005989    0.63866995    0.85924015    0.11410000
opls_146-399    H    0.21926988    0.67577974    0.83127013    0.11730000
opls_144-400    H    0.14398007    0.33384997    0.51710014    0.04720000
opls_146-401    H    0.92019003    0.39739992    0.65828975    0.11530000
opls_526-402    H    0.80854969    0.33148976    0.67835991    0.11430000
opls_526-403    H    0.79195974    0.48924974    0.73998963    0.11330000
opls_146-404    H    0.90338008    0.55530982    0.72332961    0.11410000
opls_146-405    H    0.47758996    0.67203991    0.79964998    0.11410000
opls_146-406    H    0.58706984    0.71369982    0.76542976    0.11290000
opls_146-407    H    0.56761998    0.77851978    0.45760963    0.11480000
opls_146-408    H    0.45864979    0.73675977    0.49158986    0.11390000
opls_144-409    H    0.56849017    0.99732999    0.80667039    0.04720000
opls_146-410    H    0.73742989    0.90165971    0.65254983    0.11430000
opls_526-411    H    0.84661976    0.97816975    0.64597991    0.11410000
opls_526-412    H    0.89050997    0.83537997    0.62607000    0.11310000
opls_146-413    H    0.78131006    0.75819008    0.63627013    0.11400000
opls_146-414    H    0.07798014    0.92460009    0.85642003    0.11820000
opls_146-415    H    0.11602979    0.85337980    0.88466034    0.11380000
opls_146-416    H    0.02799987    0.80472984    0.19256977    0.11410000
opls_146-417    H    0.99088975    0.87682972    0.16459974    0.11730000
opls_144-418    H    0.33282016    0.14347008    0.85042976    0.04720000
opls_146-419    H    0.26926982    0.85612998    0.99162016    0.11530000
opls_526-420    H    0.33517990    0.81040005    0.01169032    0.11380000
opls_526-421    H    0.17741980    0.63604976    0.07332004    0.11330000
opls_146-422    H    0.11136022    0.68141009    0.05666002    0.11410000
opls_146-423    H    0.99463008    0.13889007    0.13298039    0.11410000
opls_146-424    H    0.95296990    0.20670977    0.09876017    0.11290000
opls_146-425    H    0.88815023    0.12244016    0.79094004    0.11480000
opls_146-426    H    0.92991009    0.05523010    0.82492027    0.11390000
opls_144-427    H    0.66933985    0.90450003    0.14000000    0.04720000
opls_146-428    H    0.76501004    0.16910991    0.98588024    0.11330000
opls_526-429    H    0.68850001    0.20179006    0.97931032    0.11410000
opls_526-430    H    0.83128984    0.38846998    0.95939962    0.11310000
opls_146-431    H    0.90848022    0.35646016    0.96959974    0.11400000
opls_146-432    H    0.74464985    0.25793010    0.18974964    0.11820000
opls_146-433    H    0.78269989    0.18670981    0.21798995    0.11380000
opls_146-434    H    0.69466998    0.13805985    0.52590018    0.11410000
opls_146-435    H    0.65756008    0.21016018    0.49793015    0.11730000
opls_144-436    H    0.99948987    0.47680010    0.18376017    0.04720000
opls_146-437    H    0.93593992    0.18945999    0.32494977    0.11530000
opls_526-438    H    0.00185001    0.14373007    0.34501993    0.11380000
opls_526-439    H    0.84409013    0.96938022    0.40664966    0.11330000
opls_146-440    H    0.77802993    0.01474011    0.38998963    0.11410000
opls_146-441    H    0.66130018    0.47222008    0.46631000    0.11410000
opls_146-442    H    0.61964000    0.54003979    0.43208978    0.11290000
opls_146-443    H    0.55481995    0.45577017    0.12426965    0.11480000
opls_146-444    H    0.59658020    0.38856011    0.15824988    0.11390000
opls_144-445    H    0.33600995    0.23783004    0.47332961    0.04720000
opls_146-446    H    0.43168015    0.50243993    0.31920985    0.11330000
opls_526-447    H    0.35517011    0.53512008    0.31263993    0.11410000
opls_526-448    H    0.49795994    0.72179999    0.29273003    0.11310000
opls_146-449    H    0.57514970    0.68978972    0.30293015    0.11400000
opls_146-450    H    0.41131004    0.59127007    0.52308962    0.11820000
opls_146-451    H    0.44936007    0.52004979    0.55132993    0.11380000
opls_146-452    H    0.36132977    0.47139983    0.85924015    0.11410000
opls_146-453    H    0.32422026    0.54350016    0.83127013    0.11730000
opls_144-454    H    0.66615005    0.81014007    0.51710014    0.04720000
opls_146-455    H    0.60260010    0.52279997    0.65828975    0.11530000
opls_526-456    H    0.66851019    0.47707004    0.67835991    0.11430000
opls_526-457    H    0.51074992    0.30272020    0.73998963    0.11330000
opls_146-458    H    0.44469011    0.34808008    0.72332961    0.11410000
opls_146-459    H    0.32795997    0.80556006    0.79964998    0.11410000
opls_146-460    H    0.28629979    0.87337976    0.76542976    0.11290000
opls_146-461    H    0.22148013    0.78911015    0.45760963    0.11480000
opls_146-462    H    0.26323999    0.72190009    0.49158986    0.11390000
opls_144-463    H    0.00267014    0.57117001    0.80667039    0.04720000
opls_146-464    H    0.09833994    0.83577990    0.65254983    0.11330000
opls_526-465    H    0.02182990    0.86846005    0.64597991    0.11410000
opls_526-466    H    0.16462013    0.05513997    0.62607000    0.11310000
opls_146-467    H    0.24180989    0.02312970    0.63627013    0.11400000
