#======================================================================
# Crystal Data Generated By AuToFF
#----------------------------------------------------------------------

data_AuToFF_phase_1

_cell_length_a                         39.8920
_cell_length_b                         39.8920
_cell_length_c                         19.2630
_cell_angle_alpha                      90.00
_cell_angle_beta                       90.00
_cell_angle_gamma                      90.00
_symmetry_space_group_name_H-M_alt     'P 1'
_symmetry_space_group_IT_number        1

loop_
_space_group_symop_operation_xyz
   'x, y, z'

loop_
   _atom_site_label
   _atom_site_type_symbol
   _atom_site_fract_x
   _atom_site_fract_y
   _atom_site_fract_z
   _atom_site_charge
opls_700-0    C    0.49837988    0.03033992    0.82931994    -0.00560000
opls_700-1    C    0.46947007    0.00099995    0.74768987    -0.00110000
opls_700-2    C    0.46964003    0.04820992    0.81443025    0.03460000
opls_145-3    C    0.46364008    0.07993006    0.84182993    -0.09180000
opls_145-4    C    0.48858994    0.09476010    0.88295022    -0.07790000
opls_700-5    C    0.51939010    0.07816003    0.89540985    0.08270000
opls_145-6    C    0.52398000    0.04522009    0.86953019    -0.03860000
opls_145-7    C    0.45448010    0.97464003    0.70969994    -0.05330000
opls_700-8    C    0.42050010    0.97754988    0.68860977    0.07560000
opls_145-9    C    0.40336007    0.00808007    0.70126979    -0.07800000
opls_145-10    C    0.41840996    0.03393989    0.73943000    -0.09020000
opls_700-11    C    0.45095007    0.02924997    0.76358978    0.03460000
opls_700-12    C    0.54729996    0.09692996    0.92928983    0.08380000
opls_700-13    C    0.40174997    0.94806001    0.66016976    0.07950000
opls_145-14    C    0.54144991    0.11563998    0.98992992    -0.07550000
opls_145-15    C    0.56625990    0.13683997    0.01684992    -0.07550000
opls_700-16    C    0.59736990    0.14032011    0.98334008    0.07030000
opls_145-17    C    0.60367994    0.12084002    0.92379017    -0.07780000
opls_145-18    C    0.57895994    0.09921989    0.89730987    -0.07780000
opls_145-19    C    0.41783992    0.92328011    0.61356019    -0.08010000
opls_145-20    C    0.39954001    0.89554998    0.58987022    -0.07940000
opls_700-21    C    0.36597990    0.89060990    0.61007995    0.07300000
opls_145-22    C    0.35077008    0.91405996    0.65467009    -0.07550000
opls_145-23    C    0.36825003    0.94210995    0.67927997    -0.07550000
opls_142-24    C    0.62204001    0.16511005    0.01049006    0.01910000
opls_142-25    C    0.34723002    0.86074000    0.58433993    0.01910000
opls_145-26    C    0.67393011    0.19778001    0.99558013    0.21850000
opls_145-27    C    0.67560012    0.21227991    0.06231013    -0.11270000
opls_145-28    C    0.76153991    0.32773012    0.10730987    -0.13210000
opls_145-29    C    0.79457009    0.32789005    0.08243005    0.22360000
opls_145-30    C    0.80496992    0.30135992    0.03940975    -0.10080000
opls_145-31    C    0.69753008    0.20773012    0.94600010    -0.10070000
opls_145-32    C    0.19967011    0.73680989    0.57869024    -0.07780000
opls_700-33    C    0.22332999    0.74806001    0.52958002    0.08220000
opls_145-34    C    0.22278001    0.73358994    0.46314022    -0.08010000
opls_145-35    C    0.23884989    0.80208989    0.59035976    -0.07940000
opls_700-36    C    0.24810990    0.77504988    0.54745990    0.08260000
opls_145-37    C    0.28104006    0.77429008    0.52151015    -0.08010000
opls_700-38    C    0.99837988    0.53033992    0.32931994    -0.00560000
opls_700-39    C    0.96947007    0.50099995    0.24768987    -0.00110000
opls_700-40    C    0.96964003    0.54820992    0.31443025    0.03460000
opls_145-41    C    0.96364008    0.57993006    0.34182993    -0.09180000
opls_145-42    C    0.98858994    0.59476010    0.38295022    -0.07790000
opls_700-43    C    0.01939010    0.57816003    0.39540985    0.08270000
opls_145-44    C    0.02398000    0.54522009    0.36953019    -0.03860000
opls_145-45    C    0.95448010    0.47464003    0.20969994    -0.05330000
opls_700-46    C    0.92050010    0.47754988    0.18860977    0.07560000
opls_145-47    C    0.90336007    0.50808007    0.20126979    -0.07800000
opls_145-48    C    0.91840996    0.53393989    0.23943000    -0.09020000
opls_700-49    C    0.95095007    0.52924997    0.26358978    0.03460000
opls_700-50    C    0.04729996    0.59692996    0.42928983    0.08380000
opls_700-51    C    0.90174997    0.44806001    0.16016976    0.07950000
opls_145-52    C    0.04144991    0.61563998    0.48992992    -0.07550000
opls_145-53    C    0.06625990    0.63683997    0.51684992    -0.07550000
opls_700-54    C    0.09736990    0.64032011    0.48334008    0.07030000
opls_145-55    C    0.10367994    0.62084002    0.42379017    -0.07780000
opls_145-56    C    0.07895994    0.59921989    0.39730987    -0.07780000
opls_145-57    C    0.91783992    0.42328011    0.11356019    -0.08010000
opls_145-58    C    0.89954001    0.39554998    0.08987022    -0.07940000
opls_700-59    C    0.86597990    0.39060990    0.11007995    0.07300000
opls_145-60    C    0.85077008    0.41405996    0.15467009    -0.07550000
opls_145-61    C    0.86825003    0.44210995    0.17927997    -0.07550000
opls_142-62    C    0.12204001    0.66511005    0.51049006    0.01910000
opls_142-63    C    0.84723002    0.36074000    0.08433993    0.01910000
opls_145-64    C    0.17393011    0.69778001    0.49558013    0.21850000
opls_145-65    C    0.17560012    0.71227991    0.56231013    -0.11270000
opls_145-66    C    0.26153991    0.82773012    0.60730987    -0.13210000
opls_145-67    C    0.29457009    0.82789005    0.58243005    0.22360000
opls_145-68    C    0.30496992    0.80135992    0.53940975    -0.10080000
opls_145-69    C    0.19753008    0.70773012    0.44600010    -0.10070000
opls_145-70    C    0.69967011    0.23680989    0.07869024    -0.07780000
opls_700-71    C    0.72332999    0.24806001    0.02958002    0.08220000
opls_145-72    C    0.72278001    0.23358994    0.96314022    -0.08010000
opls_145-73    C    0.73884989    0.30208989    0.09035976    -0.07940000
opls_700-74    C    0.74810990    0.27504988    0.04745990    0.08260000
opls_145-75    C    0.78104006    0.27429008    0.02151015    -0.08010000
opls_700-76    C    0.50162012    0.96966008    0.82931994    -0.00560000
opls_700-77    C    0.53052993    0.99900005    0.74768987    -0.00110000
opls_700-78    C    0.53035997    0.95179008    0.81443025    0.03460000
opls_145-79    C    0.53635992    0.92006994    0.84182993    -0.09180000
opls_145-80    C    0.51141006    0.90523990    0.88295022    -0.07790000
opls_700-81    C    0.48060990    0.92183997    0.89540985    0.08270000
opls_145-82    C    0.47602000    0.95477991    0.86953019    -0.03860000
opls_145-83    C    0.54551990    0.02535997    0.70969994    -0.05330000
opls_700-84    C    0.57949990    0.02245012    0.68860977    0.07560000
opls_145-85    C    0.59663993    0.99191993    0.70126979    -0.07800000
opls_145-86    C    0.58159004    0.96606011    0.73943000    -0.09020000
opls_700-87    C    0.54904993    0.97075003    0.76358978    0.03460000
opls_700-88    C    0.45270004    0.90307004    0.92928983    0.08380000
opls_700-89    C    0.59825003    0.05193999    0.66016976    0.07950000
opls_145-90    C    0.45855009    0.88436002    0.98992992    -0.07550000
opls_145-91    C    0.43374010    0.86316003    0.01684992    -0.07550000
opls_700-92    C    0.40263010    0.85967989    0.98334008    0.07030000
opls_145-93    C    0.39632006    0.87915998    0.92379017    -0.07780000
opls_145-94    C    0.42104006    0.90078011    0.89730987    -0.07780000
opls_145-95    C    0.58216008    0.07671989    0.61356019    -0.08010000
opls_145-96    C    0.60045999    0.10445002    0.58987022    -0.07940000
opls_700-97    C    0.63402010    0.10939010    0.61007995    0.07300000
opls_145-98    C    0.64922992    0.08594004    0.65467009    -0.07550000
opls_145-99    C    0.63174997    0.05789005    0.67927997    -0.07550000
opls_142-100    C    0.37795999    0.83488995    0.01049006    0.01910000
opls_142-101    C    0.65276998    0.13926000    0.58433993    0.01910000
opls_145-102    C    0.32606989    0.80221999    0.99558013    0.21850000
opls_145-103    C    0.32439988    0.78772009    0.06231013    -0.11270000
opls_145-104    C    0.23846009    0.67226988    0.10730987    -0.13210000
opls_145-105    C    0.20542991    0.67210995    0.08243005    0.22360000
opls_145-106    C    0.19503008    0.69864008    0.03940975    -0.10080000
opls_145-107    C    0.30246992    0.79226988    0.94600010    -0.10070000
opls_145-108    C    0.80032989    0.26319011    0.57869024    -0.07780000
opls_700-109    C    0.77667001    0.25193999    0.52958002    0.08220000
opls_145-110    C    0.77721999    0.26641006    0.46314022    -0.08010000
opls_145-111    C    0.76115011    0.19791011    0.59035976    -0.07940000
opls_700-112    C    0.75189010    0.22495012    0.54745990    0.08260000
opls_145-113    C    0.71895994    0.22570992    0.52151015    -0.08010000
opls_700-114    C    0.00162012    0.46966008    0.32931994    -0.00560000
opls_700-115    C    0.03052993    0.49900005    0.24768987    -0.00110000
opls_700-116    C    0.03035997    0.45179008    0.31443025    0.03460000
opls_145-117    C    0.03635992    0.42006994    0.34182993    -0.09180000
opls_145-118    C    0.01141006    0.40523990    0.38295022    -0.07790000
opls_700-119    C    0.98060990    0.42183997    0.39540985    0.08270000
opls_145-120    C    0.97602000    0.45477991    0.36953019    -0.03860000
opls_145-121    C    0.04551990    0.52535997    0.20969994    -0.05330000
opls_700-122    C    0.07949990    0.52245012    0.18860977    0.07560000
opls_145-123    C    0.09663993    0.49191993    0.20126979    -0.07800000
opls_145-124    C    0.08159004    0.46606011    0.23943000    -0.09020000
opls_700-125    C    0.04904993    0.47075003    0.26358978    0.03460000
opls_700-126    C    0.95270004    0.40307004    0.42928983    0.08380000
opls_700-127    C    0.09825003    0.55193999    0.16016976    0.07950000
opls_145-128    C    0.95855009    0.38436002    0.48992992    -0.07550000
opls_145-129    C    0.93374010    0.36316003    0.51684992    -0.07550000
opls_700-130    C    0.90263010    0.35967989    0.48334008    0.07030000
opls_145-131    C    0.89632006    0.37915998    0.42379017    -0.07780000
opls_145-132    C    0.92104006    0.40078011    0.39730987    -0.07780000
opls_145-133    C    0.08216008    0.57671989    0.11356019    -0.08010000
opls_145-134    C    0.10045999    0.60445002    0.08987022    -0.07940000
opls_700-135    C    0.13402010    0.60939010    0.11007995    0.07300000
opls_145-136    C    0.14922992    0.58594004    0.15467009    -0.07550000
opls_145-137    C    0.13174997    0.55789005    0.17927997    -0.07550000
opls_142-138    C    0.87795999    0.33488995    0.51049006    0.01910000
opls_142-139    C    0.15276998    0.63926000    0.08433993    0.01910000
opls_145-140    C    0.82606989    0.30221999    0.49558013    0.21850000
opls_145-141    C    0.82439988    0.28772009    0.56231013    -0.11270000
opls_145-142    C    0.73846009    0.17226988    0.60730987    -0.13210000
opls_145-143    C    0.70542991    0.17210995    0.58243005    0.22360000
opls_145-144    C    0.69503008    0.19864008    0.53940975    -0.10080000
opls_145-145    C    0.80246992    0.29226988    0.44600010    -0.10070000
opls_145-146    C    0.30032989    0.76319011    0.07869024    -0.07780000
opls_700-147    C    0.27667001    0.75193999    0.02958002    0.08220000
opls_145-148    C    0.27721999    0.76641006    0.96314022    -0.08010000
opls_145-149    C    0.26115011    0.69791011    0.09035976    -0.07940000
opls_700-150    C    0.25189010    0.72495012    0.04745990    0.08260000
opls_145-151    C    0.21895994    0.72570992    0.02151015    -0.08010000
opls_700-152    C    0.96966008    0.49837988    0.82931994    -0.00560000
opls_700-153    C    0.99900005    0.46947007    0.74768987    -0.00110000
opls_700-154    C    0.95179008    0.46964003    0.81443025    0.03460000
opls_145-155    C    0.92006994    0.46364008    0.84182993    -0.09180000
opls_145-156    C    0.90523990    0.48858994    0.88295022    -0.07790000
opls_700-157    C    0.92183997    0.51939010    0.89540985    0.08270000
opls_145-158    C    0.95477991    0.52398000    0.86953019    -0.03860000
opls_145-159    C    0.02535997    0.45448010    0.70969994    -0.05330000
opls_700-160    C    0.02245012    0.42050010    0.68860977    0.07560000
opls_145-161    C    0.99191993    0.40336007    0.70126979    -0.07800000
opls_145-162    C    0.96606011    0.41840996    0.73943000    -0.09020000
opls_700-163    C    0.97075003    0.45095007    0.76358978    0.03460000
opls_700-164    C    0.90307004    0.54729996    0.92928983    0.08380000
opls_700-165    C    0.05193999    0.40174997    0.66016976    0.07950000
opls_145-166    C    0.88436002    0.54144991    0.98992992    -0.07550000
opls_145-167    C    0.86316003    0.56625990    0.01684992    -0.07550000
opls_700-168    C    0.85967989    0.59736990    0.98334008    0.07030000
opls_145-169    C    0.87915998    0.60367994    0.92379017    -0.07780000
opls_145-170    C    0.90078011    0.57895994    0.89730987    -0.07780000
opls_145-171    C    0.07671989    0.41783992    0.61356019    -0.08010000
opls_145-172    C    0.10445002    0.39954001    0.58987022    -0.07940000
opls_700-173    C    0.10939010    0.36597990    0.61007995    0.07300000
opls_145-174    C    0.08594004    0.35077008    0.65467009    -0.07550000
opls_145-175    C    0.05789005    0.36825003    0.67927997    -0.07550000
opls_142-176    C    0.83488995    0.62204001    0.01049006    0.01910000
opls_142-177    C    0.13926000    0.34723002    0.58433993    0.01910000
opls_145-178    C    0.80221999    0.67393011    0.99558013    0.21850000
opls_145-179    C    0.78772009    0.67560012    0.06231013    -0.11270000
opls_145-180    C    0.67226988    0.76153991    0.10730987    -0.13210000
opls_145-181    C    0.67210995    0.79457009    0.08243005    0.22360000
opls_145-182    C    0.69864008    0.80496992    0.03940975    -0.10080000
opls_145-183    C    0.79226988    0.69753008    0.94600010    -0.10070000
opls_145-184    C    0.26319011    0.19967011    0.57869024    -0.07780000
opls_700-185    C    0.25193999    0.22332999    0.52958002    0.08220000
opls_145-186    C    0.26641006    0.22278001    0.46314022    -0.08010000
opls_145-187    C    0.19791011    0.23884989    0.59035976    -0.07940000
opls_700-188    C    0.22495012    0.24810990    0.54745990    0.08260000
opls_145-189    C    0.22570992    0.28104006    0.52151015    -0.08010000
opls_700-190    C    0.46966008    0.99837988    0.32931994    -0.00560000
opls_700-191    C    0.49900005    0.96947007    0.24768987    -0.00110000
opls_700-192    C    0.45179008    0.96964003    0.31443025    0.03460000
opls_145-193    C    0.42006994    0.96364008    0.34182993    -0.09180000
opls_145-194    C    0.40523990    0.98858994    0.38295022    -0.07790000
opls_700-195    C    0.42183997    0.01939010    0.39540985    0.08270000
opls_145-196    C    0.45477991    0.02398000    0.36953019    -0.03860000
opls_145-197    C    0.52535997    0.95448010    0.20969994    -0.05330000
opls_700-198    C    0.52245012    0.92050010    0.18860977    0.07560000
opls_145-199    C    0.49191993    0.90336007    0.20126979    -0.07800000
opls_145-200    C    0.46606011    0.91840996    0.23943000    -0.09020000
opls_700-201    C    0.47075003    0.95095007    0.26358978    0.03460000
opls_700-202    C    0.40307004    0.04729996    0.42928983    0.08380000
opls_700-203    C    0.55193999    0.90174997    0.16016976    0.07950000
opls_145-204    C    0.38436002    0.04144991    0.48992992    -0.07550000
opls_145-205    C    0.36316003    0.06625990    0.51684992    -0.07550000
opls_700-206    C    0.35967989    0.09736990    0.48334008    0.07030000
opls_145-207    C    0.37915998    0.10367994    0.42379017    -0.07780000
opls_145-208    C    0.40078011    0.07895994    0.39730987    -0.07780000
opls_145-209    C    0.57671989    0.91783992    0.11356019    -0.08010000
opls_145-210    C    0.60445002    0.89954001    0.08987022    -0.07940000
opls_700-211    C    0.60939010    0.86597990    0.11007995    0.07300000
opls_145-212    C    0.58594004    0.85077008    0.15467009    -0.07550000
opls_145-213    C    0.55789005    0.86825003    0.17927997    -0.07550000
opls_142-214    C    0.33488995    0.12204001    0.51049006    0.01910000
opls_142-215    C    0.63926000    0.84723002    0.08433993    0.01910000
opls_145-216    C    0.30221999    0.17393011    0.49558013    0.21850000
opls_145-217    C    0.28772009    0.17560012    0.56231013    -0.11270000
opls_145-218    C    0.17226988    0.26153991    0.60730987    -0.13210000
opls_145-219    C    0.17210995    0.29457009    0.58243005    0.22360000
opls_145-220    C    0.19864008    0.30496992    0.53940975    -0.10080000
opls_145-221    C    0.29226988    0.19753008    0.44600010    -0.10070000
opls_145-222    C    0.76319011    0.69967011    0.07869024    -0.07780000
opls_700-223    C    0.75193999    0.72332999    0.02958002    0.08220000
opls_145-224    C    0.76641006    0.72278001    0.96314022    -0.08010000
opls_145-225    C    0.69791011    0.73884989    0.09035976    -0.07940000
opls_700-226    C    0.72495012    0.74810990    0.04745990    0.08260000
opls_145-227    C    0.72570992    0.78104006    0.02151015    -0.08010000
opls_700-228    C    0.03033992    0.50162012    0.82931994    -0.00560000
opls_700-229    C    0.00099995    0.53052993    0.74768987    -0.00110000
opls_700-230    C    0.04820992    0.53035997    0.81443025    0.03460000
opls_145-231    C    0.07993006    0.53635992    0.84182993    -0.09180000
opls_145-232    C    0.09476010    0.51141006    0.88295022    -0.07790000
opls_700-233    C    0.07816003    0.48060990    0.89540985    0.08270000
opls_145-234    C    0.04522009    0.47602000    0.86953019    -0.03860000
opls_145-235    C    0.97464003    0.54551990    0.70969994    -0.05330000
opls_700-236    C    0.97754988    0.57949990    0.68860977    0.07560000
opls_145-237    C    0.00808007    0.59663993    0.70126979    -0.07800000
opls_145-238    C    0.03393989    0.58159004    0.73943000    -0.09020000
opls_700-239    C    0.02924997    0.54904993    0.76358978    0.03460000
opls_700-240    C    0.09692996    0.45270004    0.92928983    0.08380000
opls_700-241    C    0.94806001    0.59825003    0.66016976    0.07950000
opls_145-242    C    0.11563998    0.45855009    0.98992992    -0.07550000
opls_145-243    C    0.13683997    0.43374010    0.01684992    -0.07550000
opls_700-244    C    0.14032011    0.40263010    0.98334008    0.07030000
opls_145-245    C    0.12084002    0.39632006    0.92379017    -0.07780000
opls_145-246    C    0.09921989    0.42104006    0.89730987    -0.07780000
opls_145-247    C    0.92328011    0.58216008    0.61356019    -0.08010000
opls_145-248    C    0.89554998    0.60045999    0.58987022    -0.07940000
opls_700-249    C    0.89060990    0.63402010    0.61007995    0.07300000
opls_145-250    C    0.91405996    0.64922992    0.65467009    -0.07550000
opls_145-251    C    0.94210995    0.63174997    0.67927997    -0.07550000
opls_142-252    C    0.16511005    0.37795999    0.01049006    0.01910000
opls_142-253    C    0.86074000    0.65276998    0.58433993    0.01910000
opls_145-254    C    0.19778001    0.32606989    0.99558013    0.21850000
opls_145-255    C    0.21227991    0.32439988    0.06231013    -0.11270000
opls_145-256    C    0.32773012    0.23846009    0.10730987    -0.13210000
opls_145-257    C    0.32789005    0.20542991    0.08243005    0.22360000
opls_145-258    C    0.30135992    0.19503008    0.03940975    -0.10080000
opls_145-259    C    0.20773012    0.30246992    0.94600010    -0.10080000
opls_145-260    C    0.73680989    0.80032989    0.57869024    -0.07780000
opls_700-261    C    0.74806001    0.77667001    0.52958002    0.08210000
opls_145-262    C    0.73358994    0.77721999    0.46314022    -0.08010000
opls_145-263    C    0.80208989    0.76115011    0.59035976    -0.07940000
opls_700-264    C    0.77504988    0.75189010    0.54745990    0.08260000
opls_145-265    C    0.77429008    0.71895994    0.52151015    -0.08010000
opls_700-266    C    0.53033992    0.00162012    0.32931994    -0.00560000
opls_700-267    C    0.50099995    0.03052993    0.24768987    -0.00110000
opls_700-268    C    0.54820992    0.03035997    0.31443025    0.03460000
opls_145-269    C    0.57993006    0.03635992    0.34182993    -0.09180000
opls_145-270    C    0.59476010    0.01141006    0.38295022    -0.07790000
opls_700-271    C    0.57816003    0.98060990    0.39540985    0.08270000
opls_145-272    C    0.54522009    0.97602000    0.36953019    -0.03860000
opls_145-273    C    0.47464003    0.04551990    0.20969994    -0.05330000
opls_700-274    C    0.47754988    0.07949990    0.18860977    0.07560000
opls_145-275    C    0.50808007    0.09663993    0.20126979    -0.07800000
opls_145-276    C    0.53393989    0.08159004    0.23943000    -0.09020000
opls_700-277    C    0.52924997    0.04904993    0.26358978    0.03460000
opls_700-278    C    0.59692996    0.95270004    0.42928983    0.08380000
opls_700-279    C    0.44806001    0.09825003    0.16016976    0.07950000
opls_145-280    C    0.61563998    0.95855009    0.48992992    -0.07550000
opls_145-281    C    0.63683997    0.93374010    0.51684992    -0.07550000
opls_700-282    C    0.64032011    0.90263010    0.48334008    0.07030000
opls_145-283    C    0.62084002    0.89632006    0.42379017    -0.07780000
opls_145-284    C    0.59921989    0.92104006    0.39730987    -0.07780000
opls_145-285    C    0.42328011    0.08216008    0.11356019    -0.08010000
opls_145-286    C    0.39554998    0.10045999    0.08987022    -0.07940000
opls_700-287    C    0.39060990    0.13402010    0.11007995    0.07300000
opls_145-288    C    0.41405996    0.14922992    0.15467009    -0.07550000
opls_145-289    C    0.44210995    0.13174997    0.17927997    -0.07550000
opls_142-290    C    0.66511005    0.87795999    0.51049006    0.01910000
opls_142-291    C    0.36074000    0.15276998    0.08433993    0.01910000
opls_145-292    C    0.69778001    0.82606989    0.49558013    0.21840000
opls_145-293    C    0.71227991    0.82439988    0.56231013    -0.11270000
opls_145-294    C    0.82773012    0.73846009    0.60730987    -0.13210000
opls_145-295    C    0.82789005    0.70542991    0.58243005    0.22360000
opls_145-296    C    0.80135992    0.69503008    0.53940975    -0.10080000
opls_145-297    C    0.70773012    0.80246992    0.44600010    -0.10070000
opls_145-298    C    0.23680989    0.30032989    0.07869024    -0.07780000
opls_700-299    C    0.24806001    0.27667001    0.02958002    0.08220000
opls_145-300    C    0.23358994    0.27721999    0.96314022    -0.08010000
opls_145-301    C    0.30208989    0.26115011    0.09035976    -0.07940000
opls_700-302    C    0.27504988    0.25189010    0.04745990    0.08260000
opls_145-303    C    0.27429008    0.21895994    0.02151015    -0.08010000
opls_701-304    C    0.00000000    0.50000000    0.28833982    -0.01110000
opls_701-305    C    0.50000000    0.00000000    0.78833982    -0.01110000
opls_701-306    C    0.50000000    0.00000000    0.28833982    -0.01110000
opls_701-307    C    0.00000000    0.50000000    0.78833982    -0.01110000
opls_750-308    N    0.64904993    0.17307004    0.97603021    -0.26290000
opls_750-309    N    0.31616991    0.85539005    0.60250013    -0.26160000
opls_750-310    N    0.14904993    0.67307004    0.47603021    -0.26290000
opls_750-311    N    0.81616991    0.35539005    0.10250013    -0.26160000
opls_750-312    N    0.35095007    0.82692996    0.97603021    -0.26290000
opls_750-313    N    0.68383009    0.14460995    0.60250013    -0.26160000
opls_750-314    N    0.85095007    0.32692996    0.47603021    -0.26290000
opls_750-315    N    0.18383009    0.64460995    0.10250013    -0.26160000
opls_750-316    N    0.82692996    0.64904993    0.97603021    -0.26290000
opls_750-317    N    0.14460995    0.31616991    0.60250013    -0.26160000
opls_750-318    N    0.32692996    0.14904993    0.47603021    -0.26300000
opls_750-319    N    0.64460995    0.81616991    0.10250013    -0.26160000
opls_750-320    N    0.17307004    0.35095007    0.97603021    -0.26290000
opls_750-321    N    0.85539005    0.68383009    0.60250013    -0.26160000
opls_750-322    N    0.67307004    0.85095007    0.47603021    -0.26290000
opls_750-323    N    0.35539005    0.18383009    0.10250013    -0.26160000
opls_146-324    H    0.43892008    0.09321994    0.83065981    0.05040000
opls_146-325    H    0.48421989    0.12052993    0.90687017    0.05040000
opls_146-326    H    0.54800988    0.03075003    0.88084982    0.05040000
opls_146-327    H    0.46966008    0.95131004    0.69626019    0.05040000
opls_146-328    H    0.37690991    0.01189010    0.68030006    0.05040000
opls_146-329    H    0.40402010    0.05809009    0.75000000    0.05040000
opls_146-330    H    0.51631004    0.11365988    0.01775995    0.05040000
opls_146-331    H    0.56134989    0.15154993    0.06656025    0.05040000
opls_146-332    H    0.62901008    0.12252005    0.89661994    0.05040000
opls_146-333    H    0.58476010    0.08345007    0.84943986    0.05040000
opls_146-334    H    0.44504988    0.92679008    0.59703006    0.05040000
opls_146-335    H    0.41180011    0.87655996    0.55365987    0.05040000
opls_146-336    H    0.32362002    0.91045999    0.67155999    0.05040000
opls_146-337    H    0.35532989    0.96063998    0.71551991    0.05040000
opls_144-338    H    0.61757997    0.17772009    0.06278980    0.02970000
opls_144-339    H    0.36002005    0.84209992    0.54813996    0.02970000
opls_146-340    H    0.65718991    0.20415998    0.10433993    0.05040000
opls_146-341    H    0.75239998    0.34884012    0.14240980    0.05040000
opls_146-342    H    0.83170009    0.30075003    0.01848985    0.05040000
opls_146-343    H    0.69736012    0.19589993    0.89212999    0.05040000
opls_146-344    H    0.19968991    0.74763010    0.63346000    0.05040000
opls_146-345    H    0.24180011    0.74177003    0.42235996    0.05040000
opls_146-346    H    0.21235010    0.80355009    0.61228988    0.05040000
opls_146-347    H    0.28941993    0.75280006    0.48657011    0.05040000
opls_146-348    H    0.93892008    0.59321994    0.33065981    0.05040000
opls_146-349    H    0.98421989    0.62052993    0.40687017    0.05040000
opls_146-350    H    0.04800988    0.53075003    0.38084982    0.05040000
opls_146-351    H    0.96966008    0.45131004    0.19626019    0.05040000
opls_146-352    H    0.87690991    0.51189010    0.18030006    0.05040000
opls_146-353    H    0.90402010    0.55809009    0.25000000    0.05040000
opls_146-354    H    0.01631004    0.61365988    0.51775995    0.05040000
opls_146-355    H    0.06134989    0.65154993    0.56656025    0.05040000
opls_146-356    H    0.12901008    0.62252005    0.39661994    0.05040000
opls_146-357    H    0.08476010    0.58345007    0.34943986    0.05040000
opls_146-358    H    0.94504988    0.42679008    0.09703006    0.05040000
opls_146-359    H    0.91180011    0.37655996    0.05365987    0.05040000
opls_146-360    H    0.82362002    0.41045999    0.17155999    0.05040000
opls_146-361    H    0.85532989    0.46063998    0.21551991    0.05040000
opls_144-362    H    0.11757997    0.67772009    0.56278980    0.02970000
opls_144-363    H    0.86002005    0.34209992    0.04813996    0.02970000
opls_146-364    H    0.15718991    0.70415998    0.60433993    0.05040000
opls_146-365    H    0.25239998    0.84884012    0.64240980    0.05040000
opls_146-366    H    0.33170009    0.80075003    0.51848985    0.05040000
opls_146-367    H    0.19736012    0.69589993    0.39212999    0.05040000
opls_146-368    H    0.69968991    0.24763010    0.13346000    0.05040000
opls_146-369    H    0.74180011    0.24177003    0.92235996    0.05040000
opls_146-370    H    0.71235010    0.30355009    0.11228988    0.05040000
opls_146-371    H    0.78941993    0.25280006    0.98657011    0.05040000
opls_146-372    H    0.56107992    0.90678006    0.83065981    0.05040000
opls_146-373    H    0.51578011    0.87947007    0.90687017    0.05040000
opls_146-374    H    0.45199012    0.96924997    0.88084982    0.05040000
opls_146-375    H    0.53033992    0.04868996    0.69626019    0.05040000
opls_146-376    H    0.62309009    0.98810990    0.68030006    0.05040000
opls_146-377    H    0.59597990    0.94190991    0.75000000    0.05040000
opls_146-378    H    0.48368996    0.88634012    0.01775995    0.05040000
opls_146-379    H    0.43865011    0.84845007    0.06656025    0.05040000
opls_146-380    H    0.37098992    0.87747995    0.89661994    0.05040000
opls_146-381    H    0.41523990    0.91654993    0.84943986    0.05040000
opls_146-382    H    0.55495012    0.07320992    0.59703006    0.05040000
opls_146-383    H    0.58819989    0.12344004    0.55365987    0.05040000
opls_146-384    H    0.67637998    0.08954001    0.67155999    0.05040000
opls_146-385    H    0.64467011    0.03936002    0.71551991    0.05040000
opls_144-386    H    0.38242003    0.82227991    0.06278980    0.02970000
opls_144-387    H    0.63997995    0.15790008    0.54813996    0.02970000
opls_146-388    H    0.34281009    0.79584002    0.10433993    0.05040000
opls_146-389    H    0.24760002    0.65115988    0.14240980    0.05040000
opls_146-390    H    0.16829991    0.69924997    0.01848985    0.05040000
opls_146-391    H    0.30263988    0.80410007    0.89212999    0.05040000
opls_146-392    H    0.80031009    0.25236990    0.63346000    0.05040000
opls_146-393    H    0.75819989    0.25822997    0.42235996    0.05040000
opls_146-394    H    0.78764990    0.19644991    0.61228988    0.05040000
opls_146-395    H    0.71058007    0.24719994    0.48657011    0.05040000
opls_146-396    H    0.06107992    0.40678006    0.33065981    0.05040000
opls_146-397    H    0.01578011    0.37947007    0.40687017    0.05040000
opls_146-398    H    0.95199012    0.46924997    0.38084982    0.05040000
opls_146-399    H    0.03033992    0.54868996    0.19626019    0.05040000
opls_146-400    H    0.12309009    0.48810990    0.18030006    0.05040000
opls_146-401    H    0.09597990    0.44190991    0.25000000    0.05040000
opls_146-402    H    0.98368996    0.38634012    0.51775995    0.05040000
opls_146-403    H    0.93865011    0.34845007    0.56656025    0.05040000
opls_146-404    H    0.87098992    0.37747995    0.39661994    0.05040000
opls_146-405    H    0.91523990    0.41654993    0.34943986    0.05040000
opls_146-406    H    0.05495012    0.57320992    0.09703006    0.05040000
opls_146-407    H    0.08819989    0.62344004    0.05365987    0.05040000
opls_146-408    H    0.17637998    0.58954001    0.17155999    0.05040000
opls_146-409    H    0.14467011    0.53936002    0.21551991    0.05040000
opls_144-410    H    0.88242003    0.32227991    0.56278980    0.02970000
opls_144-411    H    0.13997995    0.65790008    0.04813996    0.02970000
opls_146-412    H    0.84281009    0.29584002    0.60433993    0.05040000
opls_146-413    H    0.74760002    0.15115988    0.64240980    0.05040000
opls_146-414    H    0.66829991    0.19924997    0.51848985    0.05040000
opls_146-415    H    0.80263988    0.30410007    0.39212999    0.05040000
opls_146-416    H    0.30031009    0.75236990    0.13346000    0.05040000
opls_146-417    H    0.25819989    0.75822997    0.92235996    0.05040000
opls_146-418    H    0.28764990    0.69644991    0.11228988    0.05040000
opls_146-419    H    0.21058007    0.74719994    0.98657011    0.05040000
opls_146-420    H    0.90678006    0.43892008    0.83065981    0.05040000
opls_146-421    H    0.87947007    0.48421989    0.90687017    0.05040000
opls_146-422    H    0.96924997    0.54800988    0.88084982    0.05040000
opls_146-423    H    0.04868996    0.46966008    0.69626019    0.05040000
opls_146-424    H    0.98810990    0.37690991    0.68030006    0.05040000
opls_146-425    H    0.94190991    0.40402010    0.75000000    0.05040000
opls_146-426    H    0.88634012    0.51631004    0.01775995    0.05040000
opls_146-427    H    0.84845007    0.56134989    0.06656025    0.05040000
opls_146-428    H    0.87747995    0.62901008    0.89661994    0.05040000
opls_146-429    H    0.91654993    0.58476010    0.84943986    0.05040000
opls_146-430    H    0.07320992    0.44504988    0.59703006    0.05040000
opls_146-431    H    0.12344004    0.41180011    0.55365987    0.05040000
opls_146-432    H    0.08954001    0.32362002    0.67155999    0.05040000
opls_146-433    H    0.03936002    0.35532989    0.71551991    0.05040000
opls_144-434    H    0.82227991    0.61757997    0.06278980    0.02970000
opls_144-435    H    0.15790008    0.36002005    0.54813996    0.02970000
opls_146-436    H    0.79584002    0.65718991    0.10433993    0.05040000
opls_146-437    H    0.65115988    0.75239998    0.14240980    0.05040000
opls_146-438    H    0.69924997    0.83170009    0.01848985    0.05040000
opls_146-439    H    0.80410007    0.69736012    0.89212999    0.05040000
opls_146-440    H    0.25236990    0.19968991    0.63346000    0.05040000
opls_146-441    H    0.25822997    0.24180011    0.42235996    0.05040000
opls_146-442    H    0.19644991    0.21235010    0.61228988    0.05040000
opls_146-443    H    0.24719994    0.28941993    0.48657011    0.05040000
opls_146-444    H    0.40678006    0.93892008    0.33065981    0.05040000
opls_146-445    H    0.37947007    0.98421989    0.40687017    0.05040000
opls_146-446    H    0.46924997    0.04800988    0.38084982    0.05040000
opls_146-447    H    0.54868996    0.96966008    0.19626019    0.05040000
opls_146-448    H    0.48810990    0.87690991    0.18030006    0.05040000
opls_146-449    H    0.44190991    0.90402010    0.25000000    0.05040000
opls_146-450    H    0.38634012    0.01631004    0.51775995    0.05040000
opls_146-451    H    0.34845007    0.06134989    0.56656025    0.05040000
opls_146-452    H    0.37747995    0.12901008    0.39661994    0.05040000
opls_146-453    H    0.41654993    0.08476010    0.34943986    0.05040000
opls_146-454    H    0.57320992    0.94504988    0.09703006    0.05040000
opls_146-455    H    0.62344004    0.91180011    0.05365987    0.05040000
opls_146-456    H    0.58954001    0.82362002    0.17155999    0.05040000
opls_146-457    H    0.53936002    0.85532989    0.21551991    0.05040000
opls_144-458    H    0.32227991    0.11757997    0.56278980    0.02970000
opls_144-459    H    0.65790008    0.86002005    0.04813996    0.02970000
opls_146-460    H    0.29584002    0.15718991    0.60433993    0.05040000
opls_146-461    H    0.15115988    0.25239998    0.64240980    0.05040000
opls_146-462    H    0.19924997    0.33170009    0.51848985    0.05040000
opls_146-463    H    0.30410007    0.19736012    0.39212999    0.05040000
opls_146-464    H    0.75236990    0.69968991    0.13346000    0.05040000
opls_146-465    H    0.75822997    0.74180011    0.92235996    0.05040000
opls_146-466    H    0.69644991    0.71235010    0.11228988    0.05040000
opls_146-467    H    0.74719994    0.78941993    0.98657011    0.05040000
opls_146-468    H    0.09321994    0.56107992    0.83065981    0.05040000
opls_146-469    H    0.12052993    0.51578011    0.90687017    0.05040000
opls_146-470    H    0.03075003    0.45199012    0.88084982    0.05040000
opls_146-471    H    0.95131004    0.53033992    0.69626019    0.05040000
opls_146-472    H    0.01189010    0.62309009    0.68030006    0.05040000
opls_146-473    H    0.05809009    0.59597990    0.75000000    0.05040000
opls_146-474    H    0.11365988    0.48368996    0.01775995    0.05040000
opls_146-475    H    0.15154993    0.43865011    0.06656025    0.05040000
opls_146-476    H    0.12252005    0.37098992    0.89661994    0.05040000
opls_146-477    H    0.08345007    0.41523990    0.84943986    0.05040000
opls_146-478    H    0.92679008    0.55495012    0.59703006    0.05040000
opls_146-479    H    0.87655996    0.58819989    0.55365987    0.05040000
opls_146-480    H    0.91045999    0.67637998    0.67155999    0.05040000
opls_146-481    H    0.96063998    0.64467011    0.71551991    0.05040000
opls_144-482    H    0.17772009    0.38242003    0.06278980    0.02970000
opls_144-483    H    0.84209992    0.63997995    0.54813996    0.02970000
opls_146-484    H    0.20415998    0.34281009    0.10433993    0.05040000
opls_146-485    H    0.34884012    0.24760002    0.14240980    0.05040000
opls_146-486    H    0.30075003    0.16829991    0.01848985    0.05040000
opls_146-487    H    0.19589993    0.30263988    0.89212999    0.05040000
opls_146-488    H    0.74763010    0.80031009    0.63346000    0.05040000
opls_146-489    H    0.74177003    0.75819989    0.42235996    0.05040000
opls_146-490    H    0.80355009    0.78764990    0.61228988    0.05040000
opls_146-491    H    0.75280006    0.71058007    0.48657011    0.05040000
opls_146-492    H    0.59321994    0.06107992    0.33065981    0.05040000
opls_146-493    H    0.62052993    0.01578011    0.40687017    0.05040000
opls_146-494    H    0.53075003    0.95199012    0.38084982    0.05040000
opls_146-495    H    0.45131004    0.03033992    0.19626019    0.05040000
opls_146-496    H    0.51189010    0.12309009    0.18030006    0.05040000
opls_146-497    H    0.55809009    0.09597990    0.25000000    0.05040000
opls_146-498    H    0.61365988    0.98368996    0.51775995    0.05040000
opls_146-499    H    0.65154993    0.93865011    0.56656025    0.05040000
opls_146-500    H    0.62252005    0.87098992    0.39661994    0.05040000
opls_146-501    H    0.58345007    0.91523990    0.34943986    0.05040000
opls_146-502    H    0.42679008    0.05495012    0.09703006    0.05040000
opls_146-503    H    0.37655996    0.08819989    0.05365987    0.05040000
opls_146-504    H    0.41045999    0.17637998    0.17155999    0.05040000
opls_146-505    H    0.46063998    0.14467011    0.21551991    0.05040000
opls_144-506    H    0.67772009    0.88242003    0.56278980    0.02970000
opls_144-507    H    0.34209992    0.13997995    0.04813996    0.02970000
opls_146-508    H    0.70415998    0.84281009    0.60433993    0.05040000
opls_146-509    H    0.84884012    0.74760002    0.64240980    0.05040000
opls_146-510    H    0.80075003    0.66829991    0.51848985    0.05040000
opls_146-511    H    0.69589993    0.80263988    0.39212999    0.05040000
opls_146-512    H    0.24763010    0.30031009    0.13346000    0.05040000
opls_146-513    H    0.24177003    0.25819989    0.92235996    0.05040000
opls_146-514    H    0.30355009    0.28764990    0.11228988    0.05040000
opls_146-515    H    0.25280006    0.21058007    0.98657011    0.05040000
