#======================================================================
# Crystal Data Generated By AuToFF
#----------------------------------------------------------------------

data_AuToFF_phase_1

_cell_length_a                         3.6000
_cell_length_b                         29.2140
_cell_length_c                         29.2140
_cell_angle_alpha                      120.00
_cell_angle_beta                       90.00
_cell_angle_gamma                      90.00
_symmetry_space_group_name_H-M_alt     'P 1'
_symmetry_space_group_IT_number        1

loop_
_space_group_symop_operation_xyz
   'x, y, z'

loop_
   _atom_site_label
   _atom_site_type_symbol
   _atom_site_fract_x
   _atom_site_fract_y
   _atom_site_fract_z
   _atom_site_charge
opls_238-0    N    0.62160000    0.47813993    0.80049976    -0.25710000
opls_238-1    N    0.62161111    0.63761990    0.18932003    -0.21450000
opls_238-2    N    0.62161111    0.32090998    0.51865983    -0.25710000
opls_238-3    N    0.62161111    0.55013015    0.35908003    -0.21450000
opls_238-4    N    0.62160000    0.19631979    0.67579971    -0.25750000
opls_238-5    N    0.62160000    0.80752008    0.44622999    -0.21450000
opls_900-6    N    0.62161111    0.67132989    0.03365999    -0.12590000
opls_900-7    N    0.62161111    0.36063984    0.32525997    -0.12600000
opls_900-8    N    0.62158889    0.96301011    0.63548006    -0.12640000
opls_910-9    H    0.62160000    0.50172013    0.78025002    0.25430000
opls_910-10    H    0.62161111    0.59636010    0.18162005    0.25430000
opls_910-11    H    0.62161111    0.27718000    0.49373974    0.25430000
opls_910-12    H    0.62161111    0.59178002    0.39184990    0.25430000
opls_910-13    H    0.62160000    0.21652001    0.71961975    0.25650000
opls_910-14    H    0.62160000    0.81498996    0.41251981    0.25430000
opls_144-15    H    0.62161111    0.39767007    0.78845987    0.02590000
opls_146-16    H    0.62161111    0.42940010    0.86046995    0.04380000
opls_617-17    H    0.62161111    0.47694990    0.96061987    0.04380000
opls_526-18    H    0.62161111    0.58542985    0.86666993    0.04380000
opls_144-19    H    0.62161111    0.72100987    0.24764991    0.02590000
opls_525-20    H    0.62161111    0.70560993    0.14306008    0.04380000
opls_526-21    H    0.62161111    0.50355996    0.02390982    0.04380000
opls_617-22    H    0.62161111    0.54477016    0.12536013    0.04380000
opls_144-23    H    0.62160000    0.38942008    0.59909004    0.02590000
opls_146-24    H    0.62161111    0.42956008    0.56724981    0.04380000
opls_617-25    H    0.62161111    0.48207002    0.51961002    0.04380000
opls_526-26    H    0.62161111    0.27962997    0.41130005    0.04380000
opls_144-27    H    0.62161111    0.52533983    0.27574983    0.02590000
opls_525-28    H    0.62161111    0.43575993    0.29092014    0.04380000
opls_526-29    H    0.62161111    0.51866980    0.49296978    0.04380000
opls_617-30    H    0.62161111    0.57886982    0.45176990    0.04380000
opls_144-31    H    0.62160000    0.20843002    0.60740978    0.02590000
opls_146-32    H    0.62160000    0.13649003    0.56708974    0.04380000
opls_617-33    H    0.62160000    0.03635996    0.51434996    0.04380000
opls_526-34    H    0.62160000    0.13001996    0.71677983    0.04380000
opls_144-35    H    0.62160000    0.74950005    0.47170976    0.02590000
opls_525-36    H    0.62158889    0.85380990    0.56028975    0.04330000
opls_526-37    H    0.62158889    0.97306989    0.47755006    0.04380000
opls_617-38    H    0.62158889    0.87158983    0.41720991    0.04380000
opls_526-39    H    0.62161111    0.25467011    0.23067999    0.04330000
opls_146-40    H    0.62161111    0.15761005    0.17589991    0.04380000
opls_146-41    H    0.62161111    0.10017020    0.22384009    0.04380000
opls_146-42    H    0.62161111    0.14596014    0.32568013    0.04330000
opls_526-43    H    0.62161111    0.24593996    0.37970014    0.04380000
opls_526-44    H    0.62158889    0.97414980    0.74130981    0.04380000
opls_146-45    H    0.62158889    0.01626004    0.83837001    0.04380000
opls_146-46    H    0.62158889    0.12159993    0.89599989    0.04380000
opls_146-47    H    0.62158889    0.17782991    0.85038974    0.04380000
opls_526-48    H    0.62158889    0.13205998    0.75042994    0.04380000
opls_526-49    H    0.62161111    0.76596988    0.02232998    0.04380000
opls_146-50    H    0.62161111    0.82079982    0.98010994    0.04380000
opls_146-51    H    0.62161111    0.77290994    0.87472999    0.04380000
opls_146-52    H    0.62161111    0.67106986    0.81864003    0.04380000
opls_526-53    H    0.62161111    0.61700980    0.86453990    0.04380000
opls_140-54    H    0.47233056    0.75347992    0.15203001    0.08920000
opls_140-55    H    0.47233056    0.80924987    0.13834981    0.08920000
opls_140-56    H    0.92016111    0.78136996    0.14519011    0.08920000
opls_140-57    H    0.38333056    0.74396985    0.05226982    0.04810000
opls_140-58    H    0.88016111    0.74731992    0.05972987    0.04810000
opls_140-59    H    0.47233056    0.39679998    0.24305980    0.08920000
opls_140-60    H    0.47233056    0.32733003    0.18731015    0.08920000
opls_140-61    H    0.92016944    0.36205994    0.21518992    0.08920000
opls_140-62    H    0.38333889    0.30658001    0.25263013    0.04810000
opls_140-63    H    0.88016944    0.31068981    0.24927994    0.04810000
opls_140-64    H    0.77086944    0.85775990    0.66798985    0.08920000
opls_140-65    H    0.77086944    0.84455006    0.59869004    0.08920000
opls_140-66    H    0.32303056    0.85115985    0.63333975    0.08920000
opls_140-67    H    0.38311944    0.94407987    0.68933999    0.04810000
opls_140-68    H    0.88015000    0.93668004    0.68524000    0.04810000
opls_142-69    C    0.62160000    0.42330998    0.76918997    0.07550000
opls_916-70    C    0.62161111    0.50337985    0.85513993    0.19030000
opls_145-71    C    0.62161111    0.47445992    0.88329993    -0.12060000
opls_608-72    C    0.62161111    0.50084016    0.93948001    -0.09540000
opls_700-73    C    0.62161111    0.55869012    0.97007004    0.02400000
opls_700-74    C    0.62161111    0.59141988    0.94502980    0.01390000
opls_523-75    C    0.62161111    0.56055000    0.88676988    -0.15210000
opls_142-76    C    0.62161111    0.67863994    0.23974993    0.06560000
opls_523-77    C    0.62161111    0.62671005    0.13877985    0.23190000
opls_522-78    C    0.62161111    0.66084983    0.11613999    -0.18990000
opls_521-79    C    0.62161111    0.63988003    0.05844015    0.07060000
opls_700-80    C    0.62161111    0.58247012    0.02656001    0.00150000
opls_523-81    C    0.62161111    0.54837985    0.05032990    -0.09550000
opls_145-82    C    0.62161111    0.57069983    0.10641986    -0.11920000
opls_142-83    C    0.62160000    0.34450005    0.57349999    0.07520000
opls_916-84    C    0.62161111    0.35021000    0.49331998    0.19030000
opls_145-85    C    0.62161111    0.40728990    0.52218986    -0.12050000
opls_608-86    C    0.62161111    0.43703994    0.49575989    -0.09540000
opls_700-87    C    0.62161111    0.40972990    0.43790986    0.02400000
opls_700-88    C    0.62161111    0.35196981    0.40521983    0.01390000
opls_523-89    C    0.62161111    0.32460997    0.43613990    -0.15210000
opls_142-90    C    0.62161111    0.55970998    0.31816987    0.06560000
opls_523-91    C    0.62161111    0.51039002    0.36982981    0.23190000
opls_522-92    C    0.62161111    0.45359996    0.33568010    -0.18990000
opls_521-93    C    0.62161111    0.41687002    0.35665988    0.07070000
opls_700-94    C    0.62161111    0.44240004    0.41407988    0.00150000
opls_523-95    C    0.62161111    0.50025000    0.44814975    -0.09550000
opls_145-96    C    0.62161111    0.53399977    0.42581977    -0.11880000
opls_142-97    C    0.62160000    0.22766013    0.65231005    0.07560000
opls_916-98    C    0.62160000    0.14168974    0.64633971    0.19030000
opls_145-99    C    0.62160000    0.11360003    0.58926003    -0.12060000
opls_608-100    C    0.62160000    0.05743006    0.55937988    -0.09540000
opls_700-101    C    0.62160000    0.02677986    0.58656992    0.02400000
opls_700-102    C    0.62160000    0.05171993    0.64432984    0.01390000
opls_523-103    C    0.62160000    0.10999003    0.67181000    -0.15210000
opls_142-104    C    0.62160000    0.75718010    0.43709998    0.06560000
opls_523-105    C    0.62158889    0.85812000    0.48569984    0.22550000
opls_522-106    C    0.62158889    0.88073990    0.54244988    -0.18990000
opls_521-107    C    0.62158889    0.93838987    0.57926006    0.07060000
opls_700-108    C    0.62158889    0.97030015    0.55377001    0.00150000
opls_523-109    C    0.62158889    0.94661014    0.49591009    -0.09550000
opls_145-110    C    0.62158889    0.89050999    0.46207975    -0.11920000
opls_521-111    C    0.62161111    0.65014979    0.97684987    0.06460000
opls_521-112    C    0.62161111    0.32504020    0.34648007    0.06460000
opls_521-113    C    0.62158889    0.01981007    0.67115980    0.06460000
opls_700-114    C    0.62161111    0.26516008    0.31332008    0.00730000
opls_523-115    C    0.62161111    0.23379009    0.25483012    -0.09380000
opls_145-116    C    0.62161111    0.17598007    0.22071006    -0.09240000
opls_145-117    C    0.62161111    0.14520011    0.24780010    -0.09230000
opls_145-118    C    0.62161111    0.17093978    0.30567979    -0.09190000
opls_523-119    C    0.62161111    0.22914012    0.33508998    -0.09350000
opls_700-120    C    0.62158889    0.04639984    0.73101972    0.00730000
opls_523-121    C    0.62158889    0.01916976    0.76226983    -0.09380000
opls_145-122    C    0.62158889    0.04277002    0.82007006    -0.09230000
opls_145-123    C    0.62158889    0.10062000    0.85097986    -0.09230000
opls_145-124    C    0.62158889    0.13286991    0.82534001    -0.09190000
opls_523-125    C    0.62158889    0.10417987    0.76713977    -0.09350000
opls_700-126    C    0.62161111    0.68333999    0.95015982    0.00730000
opls_523-127    C    0.62161111    0.74184009    0.97730994    -0.09380000
opls_145-128    C    0.62161111    0.77597982    0.95364993    -0.09230000
opls_145-129    C    0.62161111    0.74892978    0.89577973    -0.09240000
opls_145-130    C    0.62161111    0.69104981    0.86360986    -0.09190000
opls_523-131    C    0.62161111    0.66161007    0.89236986    -0.09350000
opls_135-132    C    0.62161111    0.77156987    0.13043007    -0.37110000
opls_908-133    C    0.62161111    0.73027004    0.06821997    -0.04310000
opls_135-134    C    0.62161111    0.35710986    0.22498989    -0.37120000
opls_908-135    C    0.62161111    0.33623001    0.26631982    -0.04310000
opls_135-136    C    0.62158889    0.86593009    0.63838993    -0.37120000
opls_908-137    C    0.62158889    0.92827016    0.65971003    -0.04300000
opls_280-138    C    0.62161111    0.61905999    0.28037986    0.32650000
opls_700-139    C    0.62161111    0.67064002    0.28493992    -0.10010000
opls_280-140    C    0.62160000    0.38302011    0.66947008    0.32230000
opls_700-141    C    0.62160000    0.37892002    0.71627984    -0.18670000
opls_280-142    C    0.62160000    0.65994015    0.37791002    0.32650000
opls_700-143    C    0.62161111    0.61292989    0.32626985    -0.10470000
opls_280-144    C    0.62160000    0.28511993    0.61382992    0.32190000
opls_700-145    C    0.62160000    0.33601999    0.61792003    -0.18670000
opls_280-146    C    0.62160000    0.71649980    0.33692990    0.32650000
opls_700-147    C    0.62160000    0.71191985    0.38394993    -0.10470000
opls_280-148    C    0.62160000    0.32737012    0.71173005    0.32230000
opls_700-149    C    0.62160000    0.28056981    0.66081991    -0.13010000
opls_403-150    I    0.12156111    0.82350992    0.27609015    0.59970000
opls_403-151    I    0.12161111    0.45120011    0.17345999    0.60260000
opls_403-152    I    0.12095000    0.89799986    0.78009982    0.61710000
opls_281-153    O    0.62161111    0.57719006    0.23548986    -0.42690000
opls_281-154    O    0.62160000    0.42882984    0.67455979    -0.44370000
opls_281-155    O    0.62160000    0.65705996    0.41988975    -0.45210000
opls_281-156    O    0.62160000    0.24439003    0.56800989    -0.45320000
opls_281-157    O    0.62160000    0.76135991    0.33988009    -0.42680000
opls_281-158    O    0.62160000    0.32226990    0.75244970    -0.45210000
