#======================================================================
# Crystal Data Generated By AuToFF
#----------------------------------------------------------------------

data_AuToFF_phase_1

_cell_length_a                         24.9320
_cell_length_b                         24.9320
_cell_length_c                         24.9320
_cell_angle_alpha                      90.00
_cell_angle_beta                       90.00
_cell_angle_gamma                      90.00
_symmetry_space_group_name_H-M_alt     'P 1'
_symmetry_space_group_IT_number        1

loop_
_space_group_symop_operation_xyz
   'x, y, z'

loop_
   _atom_site_label
   _atom_site_type_symbol
   _atom_site_fract_x
   _atom_site_fract_y
   _atom_site_fract_z
   _atom_site_charge
opls_142-0    C    0.25086997    0.26893992    0.88182015    0.06850000
opls_139-1    C    0.26479986    0.33866998    0.95095018    0.25740000
opls_700-2    C    0.27051981    0.23959009    0.83427001    0.05970000
opls_145-3    C    0.30608014    0.81624017    0.75726015    -0.18690000
opls_136-4    C    0.62518009    0.46618001    0.18663003    -0.33630000
opls_142-5    C    0.75086997    0.76893992    0.38182015    0.06850000
opls_139-6    C    0.76479986    0.83866998    0.45095018    0.25740000
opls_700-7    C    0.77051981    0.73959009    0.33427001    0.05970000
opls_145-8    C    0.80608014    0.31624017    0.25726015    -0.18690000
opls_136-9    C    0.12518009    0.96618001    0.68663003    -0.33620000
opls_142-10    C    0.24913003    0.73106008    0.38182015    0.06860000
opls_139-11    C    0.23520014    0.66133002    0.45095018    0.25740000
opls_700-12    C    0.22948019    0.76040991    0.33427001    0.05970000
opls_145-13    C    0.19391986    0.18375983    0.25726015    -0.18690000
opls_136-14    C    0.87481991    0.53381999    0.68663003    -0.33630000
opls_142-15    C    0.74913003    0.23106008    0.88182015    0.06850000
opls_139-16    C    0.73520014    0.16133002    0.95095018    0.25740000
opls_700-17    C    0.72948019    0.26040991    0.83427001    0.05970000
opls_145-18    C    0.69391986    0.68375983    0.75726015    -0.18690000
opls_136-19    C    0.37481991    0.03381999    0.18663003    -0.33630000
opls_142-20    C    0.74913003    0.76893992    0.61817985    0.06850000
opls_139-21    C    0.73520014    0.83866998    0.54904982    0.25740000
opls_700-22    C    0.72948019    0.73959009    0.66572999    0.05970000
opls_145-23    C    0.69391986    0.31624017    0.74273985    -0.18690000
opls_136-24    C    0.37481991    0.96618001    0.31336997    -0.33630000
opls_142-25    C    0.24913003    0.26893992    0.11817985    0.06850000
opls_139-26    C    0.23520014    0.33866998    0.04904982    0.25740000
opls_700-27    C    0.22948019    0.23959009    0.16572999    0.05970000
opls_145-28    C    0.19391986    0.81624017    0.24273985    -0.18690000
opls_136-29    C    0.87481991    0.46618001    0.81336997    -0.33620000
opls_142-30    C    0.75086997    0.23106008    0.11817985    0.06850000
opls_139-31    C    0.76479986    0.16133002    0.04904982    0.25740000
opls_700-32    C    0.77051981    0.26040991    0.16572999    0.05970000
opls_145-33    C    0.80608014    0.68375983    0.24273985    -0.18690000
opls_136-34    C    0.12518009    0.03381999    0.81336997    -0.33630000
opls_142-35    C    0.25086997    0.73106008    0.61817985    0.06850000
opls_139-36    C    0.26479986    0.66133002    0.54904982    0.25750000
opls_700-37    C    0.27051981    0.76040991    0.66572999    0.05970000
opls_145-38    C    0.30608014    0.18375983    0.74273985    -0.18690000
opls_136-39    C    0.62518009    0.53381999    0.31336997    -0.33630000
opls_142-40    C    0.88182015    0.25086997    0.26893992    0.06850000
opls_139-41    C    0.95095018    0.26479986    0.33866998    0.25740000
opls_700-42    C    0.83427001    0.27051981    0.23959009    0.05970000
opls_145-43    C    0.75726015    0.30608014    0.81624017    -0.18690000
opls_136-44    C    0.18663003    0.62518009    0.46618001    -0.33620000
opls_142-45    C    0.38182015    0.75086997    0.76893992    0.06850000
opls_139-46    C    0.45095018    0.76479986    0.83866998    0.25740000
opls_700-47    C    0.33427001    0.77051981    0.73959009    0.05970000
opls_145-48    C    0.25726015    0.80608014    0.31624017    -0.18680000
opls_136-49    C    0.68663003    0.12518009    0.96618001    -0.33620000
opls_142-50    C    0.38182015    0.24913003    0.73106008    0.06850000
opls_139-51    C    0.45095018    0.23520014    0.66133002    0.25750000
opls_700-52    C    0.33427001    0.22948019    0.76040991    0.05970000
opls_145-53    C    0.25726015    0.19391986    0.18375983    -0.18690000
opls_136-54    C    0.68663003    0.87481991    0.53381999    -0.33620000
opls_142-55    C    0.88182015    0.74913003    0.23106008    0.06850000
opls_139-56    C    0.95095018    0.73520014    0.16133002    0.25740000
opls_700-57    C    0.83427001    0.72948019    0.26040991    0.05970000
opls_145-58    C    0.75726015    0.69391986    0.68375983    -0.18690000
opls_136-59    C    0.18663003    0.37481991    0.03381999    -0.33620000
opls_142-60    C    0.61817985    0.74913003    0.76893992    0.06850000
opls_139-61    C    0.54904982    0.73520014    0.83866998    0.25740000
opls_700-62    C    0.66572999    0.72948019    0.73959009    0.05970000
opls_145-63    C    0.74273985    0.69391986    0.31624017    -0.18690000
opls_136-64    C    0.31336997    0.37481991    0.96618001    -0.33620000
opls_142-65    C    0.11817985    0.24913003    0.26893992    0.06850000
opls_139-66    C    0.04904982    0.23520014    0.33866998    0.25740000
opls_700-67    C    0.16572999    0.22948019    0.23959009    0.05970000
opls_145-68    C    0.24273985    0.19391986    0.81624017    -0.18690000
opls_136-69    C    0.81336997    0.87481991    0.46618001    -0.33620000
opls_142-70    C    0.11817985    0.75086997    0.23106008    0.06850000
opls_139-71    C    0.04904982    0.76479986    0.16133002    0.25750000
opls_700-72    C    0.16572999    0.77051981    0.26040991    0.05970000
opls_145-73    C    0.24273985    0.80608014    0.68375983    -0.18690000
opls_136-74    C    0.81336997    0.12518009    0.03381999    -0.33630000
opls_142-75    C    0.61817985    0.25086997    0.73106008    0.06850000
opls_139-76    C    0.54904982    0.26479986    0.66133002    0.25740000
opls_700-77    C    0.66572999    0.27051981    0.76040991    0.05970000
opls_145-78    C    0.74273985    0.30608014    0.18375983    -0.18690000
opls_136-79    C    0.31336997    0.62518009    0.53381999    -0.33620000
opls_142-80    C    0.26893992    0.88182015    0.25086997    0.06860000
opls_139-81    C    0.33866998    0.95095018    0.26479986    0.25740000
opls_700-82    C    0.23959009    0.83427001    0.27051981    0.05970000
opls_145-83    C    0.81624017    0.75726015    0.30608014    -0.18690000
opls_136-84    C    0.46618001    0.18663003    0.62518009    -0.33630000
opls_142-85    C    0.76893992    0.38182015    0.75086997    0.06850000
opls_139-86    C    0.83866998    0.45095018    0.76479986    0.25740000
opls_700-87    C    0.73959009    0.33427001    0.77051981    0.05970000
opls_145-88    C    0.31624017    0.25726015    0.80608014    -0.18690000
opls_136-89    C    0.96618001    0.68663003    0.12518009    -0.33630000
opls_142-90    C    0.73106008    0.38182015    0.24913003    0.06850000
opls_139-91    C    0.66133002    0.45095018    0.23520014    0.25740000
opls_700-92    C    0.76040991    0.33427001    0.22948019    0.05970000
opls_145-93    C    0.18375983    0.25726015    0.19391986    -0.18690000
opls_136-94    C    0.53381999    0.68663003    0.87481991    -0.33630000
opls_142-95    C    0.23106008    0.88182015    0.74913003    0.06850000
opls_139-96    C    0.16133002    0.95095018    0.73520014    0.25740000
opls_700-97    C    0.26040991    0.83427001    0.72948019    0.05970000
opls_145-98    C    0.68375983    0.75726015    0.69391986    -0.18680000
opls_136-99    C    0.03381999    0.18663003    0.37481991    -0.33630000
opls_142-100    C    0.76893992    0.61817985    0.74913003    0.06850000
opls_139-101    C    0.83866998    0.54904982    0.73520014    0.25740000
opls_700-102    C    0.73959009    0.66572999    0.72948019    0.05970000
opls_145-103    C    0.31624017    0.74273985    0.69391986    -0.18690000
opls_136-104    C    0.96618001    0.31336997    0.37481991    -0.33610000
opls_142-105    C    0.26893992    0.11817985    0.24913003    0.06850000
opls_139-106    C    0.33866998    0.04904982    0.23520014    0.25740000
opls_700-107    C    0.23959009    0.16572999    0.22948019    0.05970000
opls_145-108    C    0.81624017    0.24273985    0.19391986    -0.18690000
opls_136-109    C    0.46618001    0.81336997    0.87481991    -0.33630000
opls_142-110    C    0.23106008    0.11817985    0.75086997    0.06850000
opls_139-111    C    0.16133002    0.04904982    0.76479986    0.25740000
opls_700-112    C    0.26040991    0.16572999    0.77051981    0.05970000
opls_145-113    C    0.68375983    0.24273985    0.80608014    -0.18690000
opls_136-114    C    0.03381999    0.81336997    0.12518009    -0.33630000
opls_142-115    C    0.73106008    0.61817985    0.25086997    0.06850000
opls_139-116    C    0.66133002    0.54904982    0.26479986    0.25740000
opls_700-117    C    0.76040991    0.66572999    0.27051981    0.05970000
opls_145-118    C    0.18375983    0.74273985    0.30608014    -0.18690000
opls_136-119    C    0.53381999    0.31336997    0.62518009    -0.33630000
opls_142-120    C    0.51893992    0.50086997    0.13182015    0.06850000
opls_139-121    C    0.58866998    0.51479986    0.20095018    0.25750000
opls_700-122    C    0.48959009    0.52051981    0.08427001    0.05970000
opls_145-123    C    0.06624017    0.55608014    0.00726015    -0.18690000
opls_136-124    C    0.71618001    0.87518009    0.43663003    -0.33630000
opls_142-125    C    0.01893992    0.00086997    0.63182015    0.06850000
opls_139-126    C    0.08866998    0.01479986    0.70095018    0.25750000
opls_700-127    C    0.98959009    0.02051981    0.58427001    0.05970000
opls_145-128    C    0.56624017    0.05608014    0.50726015    -0.18690000
opls_136-129    C    0.21618001    0.37518009    0.93663003    -0.33630000
opls_142-130    C    0.98106008    0.49913003    0.63182015    0.06850000
opls_139-131    C    0.91133002    0.48520014    0.70095018    0.25750000
opls_700-132    C    0.01040991    0.47948019    0.58427001    0.05970000
opls_145-133    C    0.43375983    0.44391986    0.50726015    -0.18690000
opls_136-134    C    0.78381999    0.12481991    0.93663003    -0.33630000
opls_142-135    C    0.48106008    0.99913003    0.13182015    0.06850000
opls_139-136    C    0.41133002    0.98520014    0.20095018    0.25740000
opls_700-137    C    0.51040991    0.97948019    0.08427001    0.05970000
opls_145-138    C    0.93375983    0.94391986    0.00726015    -0.18690000
opls_136-139    C    0.28381999    0.62481991    0.43663003    -0.33630000
opls_142-140    C    0.01893992    0.99913003    0.86817985    0.06850000
opls_139-141    C    0.08866998    0.98520014    0.79904982    0.25740000
opls_700-142    C    0.98959009    0.97948019    0.91572999    0.05970000
opls_145-143    C    0.56624017    0.94391986    0.99273985    -0.18690000
opls_136-144    C    0.21618001    0.62481991    0.56336997    -0.33630000
opls_142-145    C    0.51893992    0.49913003    0.36817985    0.06850000
opls_139-146    C    0.58866998    0.48520014    0.29904982    0.25740000
opls_700-147    C    0.48959009    0.47948019    0.41572999    0.05970000
opls_145-148    C    0.06624017    0.44391986    0.49273985    -0.18690000
opls_136-149    C    0.71618001    0.12481991    0.06336997    -0.33630000
opls_142-150    C    0.48106008    0.00086997    0.36817985    0.06850000
opls_139-151    C    0.41133002    0.01479986    0.29904982    0.25740000
opls_700-152    C    0.51040991    0.02051981    0.41572999    0.05970000
opls_145-153    C    0.93375983    0.05608014    0.49273985    -0.18690000
opls_136-154    C    0.28381999    0.37518009    0.06336997    -0.33630000
opls_142-155    C    0.98106008    0.50086997    0.86817985    0.06850000
opls_139-156    C    0.91133002    0.51479986    0.79904982    0.25740000
opls_700-157    C    0.01040991    0.52051981    0.91572999    0.05980000
opls_145-158    C    0.43375983    0.55608014    0.99273985    -0.18690000
opls_136-159    C    0.78381999    0.87518009    0.56336997    -0.33630000
opls_142-160    C    0.50086997    0.13182015    0.51893992    0.06850000
opls_139-161    C    0.51479986    0.20095018    0.58866998    0.25740000
opls_700-162    C    0.52051981    0.08427001    0.48959009    0.05970000
opls_145-163    C    0.55608014    0.00726015    0.06624017    -0.18690000
opls_136-164    C    0.87518009    0.43663003    0.71618001    -0.33630000
opls_142-165    C    0.00086997    0.63182015    0.01893992    0.06850000
opls_139-166    C    0.01479986    0.70095018    0.08866998    0.25740000
opls_700-167    C    0.02051981    0.58427001    0.98959009    0.05970000
opls_145-168    C    0.05608014    0.50726015    0.56624017    -0.18690000
opls_136-169    C    0.37518009    0.93663003    0.21618001    -0.33630000
opls_142-170    C    0.49913003    0.63182015    0.98106008    0.06850000
opls_139-171    C    0.48520014    0.70095018    0.91133002    0.25740000
opls_700-172    C    0.47948019    0.58427001    0.01040991    0.05970000
opls_145-173    C    0.44391986    0.50726015    0.43375983    -0.18690000
opls_136-174    C    0.12481991    0.93663003    0.78381999    -0.33630000
opls_142-175    C    0.99913003    0.13182015    0.48106008    0.06850000
opls_139-176    C    0.98520014    0.20095018    0.41133002    0.25740000
opls_700-177    C    0.97948019    0.08427001    0.51040991    0.05970000
opls_145-178    C    0.94391986    0.00726015    0.93375983    -0.18690000
opls_136-179    C    0.62481991    0.43663003    0.28381999    -0.33620000
opls_142-180    C    0.99913003    0.86817985    0.01893992    0.06850000
opls_139-181    C    0.98520014    0.79904982    0.08866998    0.25750000
opls_700-182    C    0.97948019    0.91572999    0.98959009    0.05970000
opls_145-183    C    0.94391986    0.99273985    0.56624017    -0.18690000
opls_136-184    C    0.62481991    0.56336997    0.21618001    -0.33620000
opls_142-185    C    0.49913003    0.36817985    0.51893992    0.06850000
opls_139-186    C    0.48520014    0.29904982    0.58866998    0.25740000
opls_700-187    C    0.47948019    0.41572999    0.48959009    0.05970000
opls_145-188    C    0.44391986    0.49273985    0.06624017    -0.18690000
opls_136-189    C    0.12481991    0.06336997    0.71618001    -0.33630000
opls_142-190    C    0.00086997    0.36817985    0.48106008    0.06850000
opls_139-191    C    0.01479986    0.29904982    0.41133002    0.25750000
opls_700-192    C    0.02051981    0.41572999    0.51040991    0.05970000
opls_145-193    C    0.05608014    0.49273985    0.93375983    -0.18690000
opls_136-194    C    0.37518009    0.06336997    0.28381999    -0.33630000
opls_142-195    C    0.50086997    0.86817985    0.98106008    0.06850000
opls_139-196    C    0.51479986    0.79904982    0.91133002    0.25740000
opls_700-197    C    0.52051981    0.91572999    0.01040991    0.05970000
opls_145-198    C    0.55608014    0.99273985    0.43375983    -0.18690000
opls_136-199    C    0.87518009    0.56336997    0.78381999    -0.33630000
opls_142-200    C    0.13182015    0.51893992    0.50086997    0.06850000
opls_139-201    C    0.20095018    0.58866998    0.51479986    0.25740000
opls_700-202    C    0.08427001    0.48959009    0.52051981    0.05970000
opls_145-203    C    0.00726015    0.06624017    0.55608014    -0.18690000
opls_136-204    C    0.43663003    0.71618001    0.87518009    -0.33630000
opls_142-205    C    0.63182015    0.01893992    0.00086997    0.06850000
opls_139-206    C    0.70095018    0.08866998    0.01479986    0.25750000
opls_700-207    C    0.58427001    0.98959009    0.02051981    0.05970000
opls_145-208    C    0.50726015    0.56624017    0.05608014    -0.18690000
opls_136-209    C    0.93663003    0.21618001    0.37518009    -0.33630000
opls_142-210    C    0.63182015    0.98106008    0.49913003    0.06850000
opls_139-211    C    0.70095018    0.91133002    0.48520014    0.25750000
opls_700-212    C    0.58427001    0.01040991    0.47948019    0.05970000
opls_145-213    C    0.50726015    0.43375983    0.44391986    -0.18690000
opls_136-214    C    0.93663003    0.78381999    0.12481991    -0.33630000
opls_142-215    C    0.13182015    0.48106008    0.99913003    0.06850000
opls_139-216    C    0.20095018    0.41133002    0.98520014    0.25740000
opls_700-217    C    0.08427001    0.51040991    0.97948019    0.05970000
opls_145-218    C    0.00726015    0.93375983    0.94391986    -0.18670000
opls_136-219    C    0.43663003    0.28381999    0.62481991    -0.33620000
opls_142-220    C    0.86817985    0.01893992    0.99913003    0.06850000
opls_139-221    C    0.79904982    0.08866998    0.98520014    0.25740000
opls_700-222    C    0.91572999    0.98959009    0.97948019    0.05970000
opls_145-223    C    0.99273985    0.56624017    0.94391986    -0.18690000
opls_136-224    C    0.56336997    0.21618001    0.62481991    -0.33630000
opls_142-225    C    0.36817985    0.51893992    0.49913003    0.06850000
opls_139-226    C    0.29904982    0.58866998    0.48520014    0.25740000
opls_700-227    C    0.41572999    0.48959009    0.47948019    0.05970000
opls_145-228    C    0.49273985    0.06624017    0.44391986    -0.18680000
opls_136-229    C    0.06336997    0.71618001    0.12481991    -0.33620000
opls_142-230    C    0.36817985    0.48106008    0.00086997    0.06850000
opls_139-231    C    0.29904982    0.41133002    0.01479986    0.25740000
opls_700-232    C    0.41572999    0.51040991    0.02051981    0.05970000
opls_145-233    C    0.49273985    0.93375983    0.05608014    -0.18680000
opls_136-234    C    0.06336997    0.28381999    0.37518009    -0.33620000
opls_142-235    C    0.86817985    0.98106008    0.50086997    0.06850000
opls_139-236    C    0.79904982    0.91133002    0.51479986    0.25740000
opls_700-237    C    0.91572999    0.01040991    0.52051981    0.05970000
opls_145-238    C    0.99273985    0.43375983    0.55608014    -0.18690000
opls_136-239    C    0.56336997    0.78381999    0.87518009    -0.33630000
opls_136-240    C    0.25000000    0.69732994    0.50000000    -0.33630000
opls_136-241    C    0.25000000    0.30267006    0.00000000    -0.33630000
opls_136-242    C    0.75000000    0.19732994    0.00000000    -0.33630000
opls_136-243    C    0.75000000    0.80267006    0.50000000    -0.33630000
opls_136-244    C    0.50000000    0.25000000    0.69732994    -0.33630000
opls_136-245    C    0.00000000    0.25000000    0.30267006    -0.33630000
opls_136-246    C    1.00000000    0.75000000    0.19732994    -0.33630000
opls_136-247    C    0.50000000    0.75000000    0.80267006    -0.33630000
opls_136-248    C    0.69732994    0.50000000    0.25000000    -0.33630000
opls_136-249    C    0.30267006    0.00000000    0.25000000    -0.33630000
opls_136-250    C    0.19732994    0.00000000    0.75000000    -0.33620000
opls_136-251    C    0.80267006    0.50000000    0.75000000    -0.33630000
opls_136-252    C    0.94732994    0.50000000    0.75000000    -0.33620000
opls_136-253    C    0.55267006    0.50000000    0.25000000    -0.33630000
opls_136-254    C    0.44732994    0.00000000    0.25000000    -0.33630000
opls_136-255    C    0.05267006    0.00000000    0.75000000    -0.33630000
opls_136-256    C    0.50000000    0.75000000    0.94732994    -0.33620000
opls_136-257    C    0.50000000    0.25000000    0.55267006    -0.33630000
opls_136-258    C    0.00000000    0.25000000    0.44732994    -0.33620000
opls_136-259    C    0.00000000    0.75000000    0.05267006    -0.33630000
opls_136-260    C    0.75000000    0.94732994    0.50000000    -0.33630000
opls_136-261    C    0.25000000    0.55267006    0.50000000    -0.33630000
opls_136-262    C    0.25000000    0.44732994    0.00000000    -0.33630000
opls_136-263    C    0.75000000    0.05267006    0.00000000    -0.33600000
opls_750-264    N    0.28047008    0.30592010    0.90422991    -0.25170000
opls_750-265    N    0.78047008    0.80592010    0.40422991    -0.25170000
opls_750-266    N    0.21952992    0.69407990    0.40422991    -0.25170000
opls_750-267    N    0.71952992    0.19407990    0.90422991    -0.25170000
opls_750-268    N    0.71952992    0.80592010    0.59577009    -0.25170000
opls_750-269    N    0.21952992    0.30592010    0.09577009    -0.25170000
opls_750-270    N    0.78047008    0.19407990    0.09577009    -0.25170000
opls_750-271    N    0.28047008    0.69407990    0.59577009    -0.25170000
opls_750-272    N    0.90422991    0.28047008    0.30592010    -0.25170000
opls_750-273    N    0.40422991    0.78047008    0.80592010    -0.25170000
opls_750-274    N    0.40422991    0.21952992    0.69407990    -0.25170000
opls_750-275    N    0.90422991    0.71952992    0.19407990    -0.25160000
opls_750-276    N    0.59577009    0.71952992    0.80592010    -0.25170000
opls_750-277    N    0.09577009    0.21952992    0.30592010    -0.25170000
opls_750-278    N    0.09577009    0.78047008    0.19407990    -0.25160000
opls_750-279    N    0.59577009    0.28047008    0.69407990    -0.25170000
opls_750-280    N    0.30592010    0.90422991    0.28047008    -0.25150000
opls_750-281    N    0.80592010    0.40422991    0.78047008    -0.25170000
opls_750-282    N    0.69407990    0.40422991    0.21952992    -0.25170000
opls_750-283    N    0.19407990    0.90422991    0.71952992    -0.25170000
opls_750-284    N    0.80592010    0.59577009    0.71952992    -0.25170000
opls_750-285    N    0.30592010    0.09577009    0.21952992    -0.25170000
opls_750-286    N    0.19407990    0.09577009    0.78047008    -0.25170000
opls_750-287    N    0.69407990    0.59577009    0.28047008    -0.25170000
opls_750-288    N    0.55592010    0.53047008    0.15422991    -0.25160000
opls_750-289    N    0.05592010    0.03047008    0.65422991    -0.25170000
opls_750-290    N    0.94407990    0.46952992    0.65422991    -0.25160000
opls_750-291    N    0.44407990    0.96952992    0.15422991    -0.25170000
opls_750-292    N    0.05592010    0.96952992    0.84577009    -0.25170000
opls_750-293    N    0.55592010    0.46952992    0.34577009    -0.25160000
opls_750-294    N    0.44407990    0.03047008    0.34577009    -0.25160000
opls_750-295    N    0.94407990    0.53047008    0.84577009    -0.25170000
opls_750-296    N    0.53047008    0.15422991    0.55592010    -0.25170000
opls_750-297    N    0.03047008    0.65422991    0.05592010    -0.25170000
opls_750-298    N    0.46952992    0.65422991    0.94407990    -0.25160000
opls_750-299    N    0.96952992    0.15422991    0.44407990    -0.25160000
opls_750-300    N    0.96952992    0.84577009    0.05592010    -0.25170000
opls_750-301    N    0.46952992    0.34577009    0.55592010    -0.25170000
opls_750-302    N    0.03047008    0.34577009    0.44407990    -0.25170000
opls_750-303    N    0.53047008    0.84577009    0.94407990    -0.25160000
opls_750-304    N    0.15422991    0.55592010    0.53047008    -0.25170000
opls_750-305    N    0.65422991    0.05592010    0.03047008    -0.25170000
opls_750-306    N    0.65422991    0.94407990    0.46952992    -0.25170000
opls_750-307    N    0.15422991    0.44407990    0.96952992    -0.25170000
opls_750-308    N    0.84577009    0.05592010    0.96952992    -0.25170000
opls_750-309    N    0.34577009    0.55592010    0.46952992    -0.25160000
opls_750-310    N    0.34577009    0.44407990    0.03047008    -0.25170000
opls_750-311    N    0.84577009    0.94407990    0.53047008    -0.25170000
opls_140-312    H    0.65075004    0.47631999    0.15115996    0.11620000
opls_140-313    H    0.59998997    0.43089002    0.17510990    0.11770000
opls_144-314    H    0.21145997    0.25920985    0.89794000    0.09330000
opls_140-315    H    0.97388015    0.53477980    0.74028999    0.11790000
opls_146-316    H    0.43047008    0.54245989    0.41223007    0.11220000
opls_140-317    H    0.15075004    0.97631999    0.65115996    0.11620000
opls_140-318    H    0.09998997    0.93089002    0.67510990    0.11770000
opls_144-319    H    0.71145997    0.75920985    0.39794000    0.09330000
opls_140-320    H    0.47388015    0.03477980    0.24028999    0.11800000
opls_146-321    H    0.93047008    0.04245989    0.91223007    0.11220000
opls_140-322    H    0.84924996    0.52368001    0.65115996    0.11620000
opls_140-323    H    0.90001003    0.56910998    0.67510990    0.11770000
opls_144-324    H    0.28854003    0.74079015    0.39794000    0.09330000
opls_140-325    H    0.52611985    0.46522020    0.24028999    0.11790000
opls_146-326    H    0.06952992    0.45754011    0.91223007    0.11220000
opls_140-327    H    0.34924996    0.02368001    0.15115996    0.11620000
opls_140-328    H    0.40001003    0.06910998    0.17510990    0.11770000
opls_144-329    H    0.78854003    0.24079015    0.89794000    0.09330000
opls_140-330    H    0.02611985    0.96522020    0.74028999    0.11790000
opls_146-331    H    0.56952992    0.95754011    0.41223007    0.11220000
opls_140-332    H    0.34924996    0.97631999    0.34884004    0.11620000
opls_140-333    H    0.40001003    0.93089002    0.32489010    0.11770000
opls_144-334    H    0.78854003    0.75920985    0.60206000    0.09330000
opls_140-335    H    0.02611985    0.03477980    0.75971001    0.11790000
opls_146-336    H    0.56952992    0.04245989    0.08776993    0.11220000
opls_140-337    H    0.84924996    0.47631999    0.84884004    0.11620000
opls_140-338    H    0.90001003    0.43089002    0.82489010    0.11770000
opls_144-339    H    0.28854003    0.25920985    0.10206000    0.09330000
opls_140-340    H    0.52611985    0.53477980    0.25971001    0.11790000
opls_146-341    H    0.06952992    0.54245989    0.58776993    0.11220000
opls_140-342    H    0.15075004    0.02368001    0.84884004    0.11620000
opls_140-343    H    0.09998997    0.06910998    0.82489010    0.11770000
opls_144-344    H    0.71145997    0.24079015    0.10206000    0.09330000
opls_140-345    H    0.47388015    0.96522020    0.25971001    0.11790000
opls_146-346    H    0.93047008    0.95754011    0.58776993    0.11220000
opls_140-347    H    0.65075004    0.52368001    0.34884004    0.11620000
opls_140-348    H    0.59998997    0.56910998    0.32489010    0.11770000
opls_144-349    H    0.21145997    0.74079015    0.60206000    0.09330000
opls_140-350    H    0.97388015    0.46522020    0.75971001    0.11790000
opls_146-351    H    0.43047008    0.45754011    0.08776993    0.11220000
opls_140-352    H    0.15115996    0.65075004    0.47631999    0.11620000
opls_140-353    H    0.17510990    0.59998997    0.43089002    0.11770000
opls_144-354    H    0.89794000    0.21145997    0.25920985    0.09330000
opls_140-355    H    0.74028999    0.97388015    0.53477980    0.11790000
opls_146-356    H    0.41223007    0.43047008    0.54245989    0.11220000
opls_140-357    H    0.65115996    0.15075004    0.97631999    0.11620000
opls_140-358    H    0.67510990    0.09998997    0.93089002    0.11770000
opls_144-359    H    0.39794000    0.71145997    0.75920985    0.09330000
opls_140-360    H    0.24028999    0.47388015    0.03477980    0.11790000
opls_146-361    H    0.91223007    0.93047008    0.04245989    0.11220000
opls_140-362    H    0.65115996    0.84924996    0.52368001    0.11620000
opls_140-363    H    0.67510990    0.90001003    0.56910998    0.11770000
opls_144-364    H    0.39794000    0.28854003    0.74079015    0.09330000
opls_140-365    H    0.24028999    0.52611985    0.46522020    0.11790000
opls_146-366    H    0.91223007    0.06952992    0.45754011    0.11220000
opls_140-367    H    0.15115996    0.34924996    0.02368001    0.11620000
opls_140-368    H    0.17510990    0.40001003    0.06910998    0.11780000
opls_144-369    H    0.89794000    0.78854003    0.24079015    0.09330000
opls_140-370    H    0.74028999    0.02611985    0.96522020    0.11790000
opls_146-371    H    0.41223007    0.56952992    0.95754011    0.11230000
opls_140-372    H    0.34884004    0.34924996    0.97631999    0.11620000
opls_140-373    H    0.32489010    0.40001003    0.93089002    0.11780000
opls_144-374    H    0.60206000    0.78854003    0.75920985    0.09330000
opls_140-375    H    0.75971001    0.02611985    0.03477980    0.11790000
opls_146-376    H    0.08776993    0.56952992    0.04245989    0.11220000
opls_140-377    H    0.84884004    0.84924996    0.47631999    0.11620000
opls_140-378    H    0.82489010    0.90001003    0.43089002    0.11770000
opls_144-379    H    0.10206000    0.28854003    0.25920985    0.09330000
opls_140-380    H    0.25971001    0.52611985    0.53477980    0.11790000
opls_146-381    H    0.58776993    0.06952992    0.54245989    0.11220000
opls_140-382    H    0.84884004    0.15075004    0.02368001    0.11630000
opls_140-383    H    0.82489010    0.09998997    0.06910998    0.11770000
opls_144-384    H    0.10206000    0.71145997    0.24079015    0.09330000
opls_140-385    H    0.25971001    0.47388015    0.96522020    0.11790000
opls_146-386    H    0.58776993    0.93047008    0.95754011    0.11220000
opls_140-387    H    0.34884004    0.65075004    0.52368001    0.11620000
opls_140-388    H    0.32489010    0.59998997    0.56910998    0.11780000
opls_144-389    H    0.60206000    0.21145997    0.74079015    0.09330000
opls_140-390    H    0.75971001    0.97388015    0.46522020    0.11790000
opls_146-391    H    0.08776993    0.43047008    0.45754011    0.11220000
opls_140-392    H    0.47631999    0.15115996    0.65075004    0.11620000
opls_140-393    H    0.43089002    0.17510990    0.59998997    0.11770000
opls_144-394    H    0.25920985    0.89794000    0.21145997    0.09330000
opls_140-395    H    0.53477980    0.74028999    0.97388015    0.11790000
opls_146-396    H    0.54245989    0.41223007    0.43047008    0.11220000
opls_140-397    H    0.97631999    0.65115996    0.15075004    0.11620000
opls_140-398    H    0.93089002    0.67510990    0.09998997    0.11770000
opls_144-399    H    0.75920985    0.39794000    0.71145997    0.09330000
opls_140-400    H    0.03477980    0.24028999    0.47388015    0.11790000
opls_146-401    H    0.04245989    0.91223007    0.93047008    0.11220000
opls_140-402    H    0.52368001    0.65115996    0.84924996    0.11620000
opls_140-403    H    0.56910998    0.67510990    0.90001003    0.11770000
opls_144-404    H    0.74079015    0.39794000    0.28854003    0.09330000
opls_140-405    H    0.46522020    0.24028999    0.52611985    0.11790000
opls_146-406    H    0.45754011    0.91223007    0.06952992    0.11230000
opls_140-407    H    0.02368001    0.15115996    0.34924996    0.11620000
opls_140-408    H    0.06910998    0.17510990    0.40001003    0.11770000
opls_144-409    H    0.24079015    0.89794000    0.78854003    0.09330000
opls_140-410    H    0.96522020    0.74028999    0.02611985    0.11790000
opls_146-411    H    0.95754011    0.41223007    0.56952992    0.11220000
opls_140-412    H    0.97631999    0.34884004    0.34924996    0.11620000
opls_140-413    H    0.93089002    0.32489010    0.40001003    0.11770000
opls_144-414    H    0.75920985    0.60206000    0.78854003    0.09330000
opls_140-415    H    0.03477980    0.75971001    0.02611985    0.11790000
opls_146-416    H    0.04245989    0.08776993    0.56952992    0.11230000
opls_140-417    H    0.47631999    0.84884004    0.84924996    0.11620000
opls_140-418    H    0.43089002    0.82489010    0.90001003    0.11770000
opls_144-419    H    0.25920985    0.10206000    0.28854003    0.09330000
opls_140-420    H    0.53477980    0.25971001    0.52611985    0.11800000
opls_146-421    H    0.54245989    0.58776993    0.06952992    0.11220000
opls_140-422    H    0.02368001    0.84884004    0.15075004    0.11620000
opls_140-423    H    0.06910998    0.82489010    0.09998997    0.11770000
opls_144-424    H    0.24079015    0.10206000    0.71145997    0.09330000
opls_140-425    H    0.96522020    0.25971001    0.47388015    0.11790000
opls_146-426    H    0.95754011    0.58776993    0.93047008    0.11220000
opls_140-427    H    0.52368001    0.34884004    0.65075004    0.11620000
opls_140-428    H    0.56910998    0.32489010    0.59998997    0.11770000
opls_144-429    H    0.74079015    0.60206000    0.21145997    0.09330000
opls_140-430    H    0.46522020    0.75971001    0.97388015    0.11790000
opls_146-431    H    0.45754011    0.08776993    0.43047008    0.11220000
opls_140-432    H    0.72631999    0.90075004    0.40115996    0.11620000
opls_140-433    H    0.68089002    0.84998997    0.42510990    0.11770000
opls_144-434    H    0.50920985    0.46145997    0.14794000    0.09330000
opls_140-435    H    0.78477980    0.22388015    0.99028999    0.11790000
opls_146-436    H    0.79245989    0.68047008    0.66223007    0.11220000
opls_140-437    H    0.22631999    0.40075004    0.90115996    0.11620000
opls_140-438    H    0.18089002    0.34998997    0.92510990    0.11770000
opls_144-439    H    0.00920985    0.96145997    0.64794000    0.09330000
opls_140-440    H    0.28477980    0.72388015    0.49028999    0.11790000
opls_146-441    H    0.29245989    0.18047008    0.16223007    0.11220000
opls_140-442    H    0.77368001    0.09924996    0.90115996    0.11620000
opls_140-443    H    0.81910998    0.15001003    0.92510990    0.11770000
opls_144-444    H    0.99079015    0.53854003    0.64794000    0.09330000
opls_140-445    H    0.71522020    0.77611985    0.49028999    0.11790000
opls_146-446    H    0.70754011    0.31952992    0.16223007    0.11230000
opls_140-447    H    0.27368001    0.59924996    0.40115996    0.11620000
opls_140-448    H    0.31910998    0.65001003    0.42510990    0.11770000
opls_144-449    H    0.49079015    0.03854003    0.14794000    0.09330000
opls_140-450    H    0.21522020    0.27611985    0.99028999    0.11790000
opls_146-451    H    0.20754011    0.81952992    0.66223007    0.11220000
opls_140-452    H    0.22631999    0.59924996    0.59884004    0.11620000
opls_140-453    H    0.18089002    0.65001003    0.57489010    0.11770000
opls_144-454    H    0.00920985    0.03854003    0.85206000    0.09330000
opls_140-455    H    0.28477980    0.27611985    0.00971001    0.11790000
opls_146-456    H    0.29245989    0.81952992    0.33776993    0.11220000
opls_140-457    H    0.72631999    0.09924996    0.09884004    0.11620000
opls_140-458    H    0.68089002    0.15001003    0.07489010    0.11770000
opls_144-459    H    0.50920985    0.53854003    0.35206000    0.09330000
opls_140-460    H    0.78477980    0.77611985    0.50971001    0.11790000
opls_146-461    H    0.79245989    0.31952992    0.83776993    0.11220000
opls_140-462    H    0.27368001    0.40075004    0.09884004    0.11620000
opls_140-463    H    0.31910998    0.34998997    0.07489010    0.11770000
opls_144-464    H    0.49079015    0.96145997    0.35206000    0.09340000
opls_140-465    H    0.21522020    0.72388015    0.50971001    0.11790000
opls_146-466    H    0.20754011    0.18047008    0.83776993    0.11220000
opls_140-467    H    0.77368001    0.90075004    0.59884004    0.11620000
opls_140-468    H    0.81910998    0.84998997    0.57489010    0.11770000
opls_144-469    H    0.99079015    0.46145997    0.85206000    0.09330000
opls_140-470    H    0.71522020    0.22388015    0.00971001    0.11790000
opls_146-471    H    0.70754011    0.68047008    0.33776993    0.11220000
opls_140-472    H    0.90075004    0.40115996    0.72631999    0.11620000
opls_140-473    H    0.84998997    0.42510990    0.68089002    0.11770000
opls_144-474    H    0.46145997    0.14794000    0.50920985    0.09330000
opls_140-475    H    0.22388015    0.99028999    0.78477980    0.11790000
opls_146-476    H    0.68047008    0.66223007    0.79245989    0.11220000
opls_140-477    H    0.40075004    0.90115996    0.22631999    0.11620000
opls_140-478    H    0.34998997    0.92510990    0.18089002    0.11770000
opls_144-479    H    0.96145997    0.64794000    0.00920985    0.09330000
opls_140-480    H    0.72388015    0.49028999    0.28477980    0.11790000
opls_146-481    H    0.18047008    0.16223007    0.29245989    0.11220000
opls_140-482    H    0.09924996    0.90115996    0.77368001    0.11620000
opls_140-483    H    0.15001003    0.92510990    0.81910998    0.11770000
opls_144-484    H    0.53854003    0.64794000    0.99079015    0.09330000
opls_140-485    H    0.77611985    0.49028999    0.71522020    0.11790000
opls_146-486    H    0.31952992    0.16223007    0.70754011    0.11220000
opls_140-487    H    0.59924996    0.40115996    0.27368001    0.11620000
opls_140-488    H    0.65001003    0.42510990    0.31910998    0.11770000
opls_144-489    H    0.03854003    0.14794000    0.49079015    0.09330000
opls_140-490    H    0.27611985    0.99028999    0.21522020    0.11790000
opls_146-491    H    0.81952992    0.66223007    0.20754011    0.11230000
opls_140-492    H    0.59924996    0.59884004    0.22631999    0.11620000
opls_140-493    H    0.65001003    0.57489010    0.18089002    0.11770000
opls_144-494    H    0.03854003    0.85206000    0.00920985    0.09330000
opls_140-495    H    0.27611985    0.00971001    0.28477980    0.11790000
opls_146-496    H    0.81952992    0.33776993    0.29245989    0.11220000
opls_140-497    H    0.09924996    0.09884004    0.72631999    0.11620000
opls_140-498    H    0.15001003    0.07489010    0.68089002    0.11770000
opls_144-499    H    0.53854003    0.35206000    0.50920985    0.09330000
opls_140-500    H    0.77611985    0.50971001    0.78477980    0.11790000
opls_146-501    H    0.31952992    0.83776993    0.79245989    0.11220000
opls_140-502    H    0.40075004    0.09884004    0.27368001    0.11620000
opls_140-503    H    0.34998997    0.07489010    0.31910998    0.11770000
opls_144-504    H    0.96145997    0.35206000    0.49079015    0.09330000
opls_140-505    H    0.72388015    0.50971001    0.21522020    0.11790000
opls_146-506    H    0.18047008    0.83776993    0.20754011    0.11230000
opls_140-507    H    0.90075004    0.59884004    0.77368001    0.11630000
opls_140-508    H    0.84998997    0.57489010    0.81910998    0.11770000
opls_144-509    H    0.46145997    0.85206000    0.99079015    0.09330000
opls_140-510    H    0.22388015    0.00971001    0.71522020    0.11790000
opls_146-511    H    0.68047008    0.33776993    0.70754011    0.11220000
opls_140-512    H    0.40115996    0.72631999    0.90075004    0.11620000
opls_140-513    H    0.42510990    0.68089002    0.84998997    0.11770000
opls_144-514    H    0.14794000    0.50920985    0.46145997    0.09330000
opls_140-515    H    0.99028999    0.78477980    0.22388015    0.11790000
opls_146-516    H    0.66223007    0.79245989    0.68047008    0.11220000
opls_140-517    H    0.90115996    0.22631999    0.40075004    0.11620000
opls_140-518    H    0.92510990    0.18089002    0.34998997    0.11770000
opls_144-519    H    0.64794000    0.00920985    0.96145997    0.09330000
opls_140-520    H    0.49028999    0.28477980    0.72388015    0.11790000
opls_146-521    H    0.16223007    0.29245989    0.18047008    0.11220000
opls_140-522    H    0.90115996    0.77368001    0.09924996    0.11630000
opls_140-523    H    0.92510990    0.81910998    0.15001003    0.11770000
opls_144-524    H    0.64794000    0.99079015    0.53854003    0.09330000
opls_140-525    H    0.49028999    0.71522020    0.77611985    0.11790000
opls_146-526    H    0.16223007    0.70754011    0.31952992    0.11220000
opls_140-527    H    0.40115996    0.27368001    0.59924996    0.11620000
opls_140-528    H    0.42510990    0.31910998    0.65001003    0.11770000
opls_144-529    H    0.14794000    0.49079015    0.03854003    0.09330000
opls_140-530    H    0.99028999    0.21522020    0.27611985    0.11790000
opls_146-531    H    0.66223007    0.20754011    0.81952992    0.11220000
opls_140-532    H    0.59884004    0.22631999    0.59924996    0.11630000
opls_140-533    H    0.57489010    0.18089002    0.65001003    0.11770000
opls_144-534    H    0.85206000    0.00920985    0.03854003    0.09340000
opls_140-535    H    0.00971001    0.28477980    0.27611985    0.11790000
opls_146-536    H    0.33776993    0.29245989    0.81952992    0.11220000
opls_140-537    H    0.09884004    0.72631999    0.09924996    0.11620000
opls_140-538    H    0.07489010    0.68089002    0.15001003    0.11770000
opls_144-539    H    0.35206000    0.50920985    0.53854003    0.09330000
opls_140-540    H    0.50971001    0.78477980    0.77611985    0.11790000
opls_146-541    H    0.83776993    0.79245989    0.31952992    0.11220000
opls_140-542    H    0.09884004    0.27368001    0.40075004    0.11630000
opls_140-543    H    0.07489010    0.31910998    0.34998997    0.11770000
opls_144-544    H    0.35206000    0.49079015    0.96145997    0.09330000
opls_140-545    H    0.50971001    0.21522020    0.72388015    0.11790000
opls_146-546    H    0.83776993    0.20754011    0.18047008    0.11220000
opls_140-547    H    0.59884004    0.77368001    0.90075004    0.11620000
opls_140-548    H    0.57489010    0.81910998    0.84998997    0.11770000
opls_144-549    H    0.85206000    0.99079015    0.46145997    0.09330000
opls_140-550    H    0.00971001    0.71522020    0.22388015    0.11790000
opls_146-551    H    0.33776993    0.70754011    0.68047008    0.11220000
