#======================================================================
# Crystal Data Generated By AuToFF
#----------------------------------------------------------------------

data_AuToFF_phase_1

_cell_length_a                         55.8584
_cell_length_b                         55.9452
_cell_length_c                         20.5310
_cell_angle_alpha                      90.00
_cell_angle_beta                       90.00
_cell_angle_gamma                      120.00
_symmetry_space_group_name_H-M_alt     'P 1'
_symmetry_space_group_IT_number        1

loop_
_space_group_symop_operation_xyz
   'x, y, z'

loop_
   _atom_site_label
   _atom_site_type_symbol
   _atom_site_fract_x
   _atom_site_fract_y
   _atom_site_fract_z
   _atom_site_charge
opls_750-0    N    0.22500998    0.74912012    0.96045979    -0.28940000
opls_750-1    N    0.23893013    0.76930012    0.56163996    -0.28950000
opls_542-2    N    0.17797006    0.80247001    0.25698992    -0.25530000
opls_750-3    N    0.09346005    0.90198010    0.54139009    -0.24610000
opls_237-4    N    0.06774007    0.86158998    0.93327992    -0.44760000
opls_542-5    N    0.13376005    0.84057015    0.24951001    -0.25520000
opls_542-6    N    0.15174009    0.81588014    0.15642979    -0.27430000
opls_542-7    N    0.15957994    0.82662999    0.35043008    -0.23790000
opls_750-8    N    0.89775008    0.09231009    0.45291997    -0.28940000
opls_750-9    N    0.90913998    0.10534003    0.05572987    -0.28950000
opls_542-10    N    0.85639000    0.14916008    0.75137986    -0.26630000
opls_750-11    N    0.76043002    0.23342001    0.04934976    -0.28940000
opls_750-12    N    0.77274004    0.24480000    0.44621986    -0.28950000
opls_542-13    N    0.81546999    0.19065011    0.74949004    -0.25420000
opls_542-14    N    0.83594004    0.16988992    0.65242998    -0.27440000
opls_542-15    N    0.83604991    0.17003998    0.84843018    -0.27420000
opls_750-16    N    0.08981011    0.19899005    0.95372997    -0.28950000
opls_750-17    N    0.10299001    0.20086002    0.56058984    -0.28950000
opls_542-18    N    0.14463994    0.29680995    0.25499002    -0.26630000
opls_750-19    N    0.24269004    0.47602000    0.55687010    -0.28940000
opls_750-20    N    0.23082002    0.47616015    0.95016999    -0.28950000
opls_542-21    N    0.18603008    0.37918009    0.25378014    -0.25660000
opls_542-22    N    0.16379991    0.33791999    0.15615995    -0.27420000
opls_542-23    N    0.16713007    0.33809006    0.35231017    -0.27420000
opls_750-24    N    0.53401008    0.77164006    0.93728995    -0.28950000
opls_750-25    N    0.53119009    0.75716017    0.54425016    -0.28950000
opls_542-26    N    0.62968000    0.81109004    0.24423993    -0.26630000
opls_750-27    N    0.80866014    0.89460012    0.55163996    -0.28940000
opls_750-28    N    0.80982007    0.90733016    0.94487994    -0.28940000
opls_542-29    N    0.71211009    0.85088017    0.24627977    -0.26630000
opls_542-30    N    0.67103994    0.83294001    0.14726024    -0.27420000
opls_542-31    N    0.67077005    0.82911998    0.34335980    -0.29270000
opls_750-32    N    0.75378005    0.52761014    0.45344991    -0.28950000
opls_750-33    N    0.76753012    0.52986009    0.06084019    -0.28950000
opls_542-34    N    0.80962002    0.62567007    0.75429984    -0.25670000
opls_750-35    N    0.90529008    0.80464009    0.05787005    -0.28940000
opls_750-36    N    0.89467997    0.80515010    0.45013005    -0.28950000
opls_542-37    N    0.85163001    0.70808005    0.75308996    -0.26630000
opls_542-38    N    0.82907997    0.66674998    0.65557985    -0.23870000
opls_542-39    N    0.83217006    0.66702016    0.85163996    -0.23830000
opls_750-40    N    0.19533000    0.10369008    0.43570016    -0.28950000
opls_750-41    N    0.19355998    0.09020007    0.04329989    -0.28950000
opls_542-42    N    0.29143012    0.14609011    0.74239979    -0.25670000
opls_750-43    N    0.47108991    0.22846995    0.04717987    -0.28950000
opls_750-44    N    0.47085005    0.24059009    0.43964006    -0.28950000
opls_542-45    N    0.37395011    0.18605010    0.74286981    -0.26630000
opls_542-46    N    0.33257001    0.16767011    0.64461984    -0.29320000
opls_542-47    N    0.33281997    0.16463006    0.84075009    -0.23870000
opls_145-48    C    0.18548000    0.74661011    0.01749988    -0.13690000
opls_145-49    C    0.21375001    0.76117999    0.00329015    0.22320000
opls_145-50    C    0.23062995    0.78691004    0.03291023    -0.13700000
opls_145-51    C    0.21937000    0.79770014    0.07657981    -0.09370000
opls_700-52    C    0.19112004    0.78295008    0.09120014    0.08540000
opls_145-53    C    0.17415997    0.75740001    0.06131996    -0.07620000
opls_145-54    C    0.20119004    0.75801012    0.48288004    -0.13700000
opls_145-55    C    0.22424004    0.77754017    0.51826993    0.22440000
opls_145-56    C    0.23380007    0.80566011    0.50862014    -0.13700000
opls_145-57    C    0.22091011    0.81421017    0.46325021    -0.07640000
opls_700-58    C    0.19816995    0.79467001    0.42732015    0.07670000
opls_145-59    C    0.18829000    0.76651002    0.43781014    -0.09530000
opls_700-60    C    0.18593011    0.80350015    0.37489017    -0.06170000
opls_543-61    C    0.18618995    0.79295999    0.20621012    0.21490000
opls_716-62    C    0.20190997    0.78155008    0.22670011    -0.15020000
opls_507-63    C    0.17243003    0.81805000    0.39226000    0.22830000
opls_716-64    C    0.17031011    0.82566012    0.45924017    -0.14210000
opls_700-65    C    0.17964001    0.79379013    0.14037017    -0.05760000
opls_543-66    C    0.18870006    0.79693998    0.31011008    0.21430000
opls_716-67    C    0.20356006    0.78414017    0.29312990    -0.15040000
opls_507-68    C    0.16297000    0.80435010    0.11849983    0.22750000
opls_716-69    C    0.15601006    0.80467001    0.04996006    -0.14250000
opls_700-70    C    0.12334016    0.83688015    0.13254980    -0.05940000
opls_543-71    C    0.12681998    0.85143001    0.29988992    0.21340000
opls_716-72    C    0.11054999    0.86225004    0.27949978    -0.15180000
opls_507-73    C    0.13783997    0.82334000    0.11502995    0.22830000
opls_716-74    C    0.14051999    0.81631997    0.04779991    -0.13840000
opls_700-75    C    0.13427007    0.85155014    0.36549023    -0.05770000
opls_543-76    C    0.12184008    0.84483001    0.19679022    0.21330000
opls_716-77    C    0.10739000    0.85804013    0.21355024    -0.14850000
opls_507-78    C    0.14945013    0.83935013    0.38798987    0.22890000
opls_716-79    C    0.15628994    0.83885002    0.45659978    -0.13860000
opls_145-80    C    0.09482007    0.86153012    0.50237007    -0.11360000
opls_145-81    C    0.10501012    0.88998009    0.49930982    0.23230000
opls_145-82    C    0.12561005    0.90596999    0.45378014    -0.13690000
opls_145-83    C    0.13557015    0.89351013    0.41122011    -0.09530000
opls_700-84    C    0.12510010    0.86496005    0.41382982    0.08690000
opls_145-85    C    0.10473996    0.84903001    0.45971019    -0.09520000
opls_145-86    C    0.10437013    0.87684015    0.01472992    -0.11360000
opls_916-87    C    0.08171008    0.85544013    0.98261020    0.31360000
opls_145-88    C    0.07269998    0.82798004    0.99917978    -0.13690000
opls_145-89    C    0.08633995    0.82191007    0.04787005    -0.07620000
opls_700-90    C    0.10904995    0.84329007    0.08037017    0.07360000
opls_145-91    C    0.11803011    0.87080010    0.06342019    -0.07620000
opls_700-92    C    0.44044005    0.72313001    0.66713019    0.08660000
opls_145-93    C    0.46146005    0.71648005    0.67297988    -0.07640000
opls_145-94    C    0.48491998    0.72946004    0.63325995    -0.07640000
opls_700-95    C    0.48748009    0.74916016    0.58736009    0.06710000
opls_145-96    C    0.46646001    0.75563014    0.58122011    -0.09360000
opls_145-97    C    0.44305003    0.74265015    0.62071015    -0.09530000
opls_142-98    C    0.51151007    0.76306007    0.54433978    0.09840000
opls_700-99    C    0.41537994    0.70959006    0.70804978    0.03360000
opls_145-100    C    0.38956006    0.69772999    0.67634991    -0.08300000
opls_700-101    C    0.36527009    0.68509014    0.71274999    0.07180000
opls_700-102    C    0.28011998    0.56665000    0.68096001    0.08070000
opls_145-103    C    0.25849991    0.56340996    0.64060007    -0.09370000
opls_145-104    C    0.24417014    0.53981015    0.60241001    -0.11160000
opls_700-105    C    0.25136997    0.51926008    0.60382008    0.07310000
opls_145-106    C    0.27306004    0.52238000    0.64393990    -0.07640000
opls_145-107    C    0.28740996    0.54604008    0.68242024    -0.07640000
opls_142-108    C    0.23650998    0.49543013    0.56079977    0.09840000
opls_700-109    C    0.29559003    0.59226014    0.71879986    0.03680000
opls_145-110    C    0.30769998    0.61721000    0.68384979    -0.08170000
opls_700-111    C    0.32204993    0.64214996    0.71679022    0.04560000
opls_700-112    C    0.27869001    0.71724001    0.68369977    0.08460000
opls_145-113    C    0.28430014    0.74461011    0.68860991    -0.07850000
opls_145-114    C    0.26936010    0.75361012    0.65109980    -0.07630000
opls_700-115    C    0.24863002    0.73524003    0.60858994    0.06880000
opls_145-116    C    0.24301005    0.70799006    0.60401003    -0.09360000
opls_145-117    C    0.25798996    0.69906002    0.64105986    -0.09530000
opls_142-118    C    0.23320007    0.74387017    0.56623983    0.02070000
opls_700-119    C    0.29489010    0.70747014    0.72058010    0.03360000
opls_145-120    C    0.30735997    0.69512008    0.68510983    -0.08170000
opls_700-121    C    0.32214005    0.68483008    0.71760996    0.04490000
opls_701-122    C    0.33863014    0.67140014    0.81566996    -0.06160000
opls_700-123    C    0.44235998    0.71828006    0.81450002    0.08630000
opls_145-124    C    0.46410997    0.74562002    0.80858020    -0.07850000
opls_145-125    C    0.48779008    0.75514015    0.84736009    -0.07630000
opls_700-126    C    0.48981014    0.73736015    0.89237007    0.06900000
opls_145-127    C    0.46816002    0.71019997    0.89815011    -0.09490000
opls_145-128    C    0.44458009    0.70074010    0.85969997    -0.09370000
opls_142-129    C    0.51348008    0.74648999    0.93623983    0.02070000
opls_700-130    C    0.41641011    0.70801008    0.77726024    0.03360000
opls_145-131    C    0.39174008    0.69590006    0.81329989    -0.08140000
opls_700-132    C    0.36651001    0.68507012    0.78152014    0.04750000
opls_700-133    C    0.28715001    0.56726012    0.82792022    0.08220000
opls_145-134    C    0.25984994    0.54560004    0.82013005    -0.07630000
opls_145-135    C    0.24943008    0.52219011    0.85992986    -0.07640000
opls_700-136    C    0.26624007    0.52029001    0.90800984    0.06960000
opls_145-137    C    0.29331995    0.54193007    0.91615021    -0.09360000
opls_145-138    C    0.30369014    0.56528014    0.87655009    -0.09520000
opls_142-139    C    0.25611007    0.49648008    0.95169987    0.02070000
opls_700-140    C    0.29846997    0.59262010    0.78789976    0.03290000
opls_145-141    C    0.31244994    0.61809999    0.82067021    -0.08320000
opls_700-142    C    0.32371001    0.64261002    0.78561005    0.04810000
opls_700-143    C    0.28564007    0.72268997    0.82954995    0.08020000
opls_145-144    C    0.25701993    0.71233000    0.82945010    -0.07620000
opls_145-145    C    0.24555012    0.72438016    0.86892991    -0.07620000
opls_700-146    C    0.26268006    0.74694014    0.90862014    0.06700000
opls_145-147    C    0.29119010    0.75728009    0.90856023    -0.09360000
opls_145-148    C    0.30262994    0.74515005    0.86947981    -0.09530000
opls_142-149    C    0.25138005    0.75972013    0.95171984    0.09840000
opls_700-150    C    0.29789013    0.70972009    0.78958989    0.03680000
opls_145-151    C    0.31220006    0.69847013    0.82209001    -0.08330000
opls_700-152    C    0.32388003    0.68572998    0.78642005    0.06770000
opls_701-153    C    0.33595997    0.67052997    0.68453022    -0.06160000
opls_145-154    C    0.86024992    0.09578997    0.50470021    -0.13690000
opls_145-155    C    0.88858992    0.10647996    0.49531976    0.23490000
opls_145-156    C    0.90751006    0.13032003    0.52937022    -0.13700000
opls_145-157    C    0.89811993    0.14292994    0.57301008    -0.09530000
opls_700-158    C    0.86971997    0.13192003    0.58308022    0.08630000
opls_145-159    C    0.85081007    0.10838998    0.54851006    -0.07620000
opls_145-160    C    0.87341998    0.09656995    0.97284984    -0.13690000
opls_145-161    C    0.89587997    0.11496005    0.01163022    0.22480000
opls_145-162    C    0.90628006    0.14336008    0.00489991    -0.13700000
opls_145-163    C    0.89467995    0.15334006    0.95958015    -0.07640000
opls_700-164    C    0.87247010    0.13496007    0.92050996    0.07670000
opls_145-165    C    0.86181007    0.10649998    0.92772003    -0.09520000
opls_700-166    C    0.86131994    0.14550002    0.86932979    -0.06250000
opls_543-167    C    0.86457004    0.14027008    0.69926988    0.21340000
opls_716-168    C    0.87823007    0.12649009    0.71824022    -0.14850000
opls_507-169    C    0.84744001    0.15941004    0.88887000    0.22830000
opls_716-170    C    0.84286998    0.16361004    0.95704983    -0.13840000
opls_700-171    C    0.85986996    0.14389011    0.63352004    -0.05870000
opls_543-172    C    0.86509996    0.14083995    0.80367006    0.21340000
opls_716-173    C    0.87868008    0.12698008    0.78493985    -0.14920000
opls_507-174    C    0.84635009    0.15803006    0.61293020    0.22790000
opls_716-175    C    0.84229009    0.16227010    0.54440018    -0.13840000
opls_700-176    C    0.81183998    0.19559005    0.63156008    -0.06170000
opls_543-177    C    0.80679998    0.19904000    0.80161999    0.21340000
opls_716-178    C    0.79320990    0.21288996    0.78267985    -0.15020000
opls_507-179    C    0.82546990    0.18141996    0.61197993    0.22840000
opls_716-180    C    0.82944999    0.17663998    0.54380985    -0.14250000
opls_700-181    C    0.81050003    0.19443009    0.86736009    -0.05870000
opls_543-182    C    0.80726006    0.19946002    0.69721981    0.21370000
opls_716-183    C    0.79362002    0.21326994    0.71597000    -0.14840000
opls_507-184    C    0.82447004    0.18072997    0.88792022    0.22790000
opls_716-185    C    0.82878004    0.17674999    0.95647022    -0.13860000
opls_145-186    C    0.76355994    0.19568994    0.99828016    -0.13690000
opls_145-187    C    0.77430005    0.22406004    0.00659003    0.23540000
opls_145-188    C    0.79770997    0.24272012    0.97084993    -0.13700000
opls_145-189    C    0.80991995    0.23304993    0.92677999    -0.09530000
opls_700-190    C    0.79889995    0.20464000    0.91789976    0.08600000
opls_145-191    C    0.77575002    0.18599004    0.95403000    -0.09520000
opls_145-192    C    0.76347003    0.20824001    0.52704009    -0.13690000
opls_145-193    C    0.78213992    0.23124003    0.49007014    0.22570000
opls_145-194    C    0.81055002    0.24173002    0.49804978    -0.13700000
opls_145-195    C    0.82026993    0.22975003    0.54301008    -0.07640000
opls_700-196    C    0.80160991    0.20704001    0.58039014    0.07670000
opls_145-197    C    0.77315002    0.19626002    0.57184989    -0.09520000
opls_145-198    C    0.09520004    0.24193002    0.99849983    -0.13700000
opls_145-199    C    0.10337991    0.22202000    0.99715990    0.22570000
opls_145-200    C    0.12414996    0.22453001    0.03992986    -0.13700000
opls_145-201    C    0.13619005    0.24637998    0.08401003    -0.09520000
opls_700-202    C    0.12764011    0.26606008    0.08630997    0.07360000
opls_145-203    C    0.10721011    0.26381012    0.04291023    -0.07640000
opls_145-204    C    0.09358000    0.22637005    0.47538990    -0.13700000
opls_145-205    C    0.11221993    0.22350999    0.51606985    0.22470000
opls_145-206    C    0.14051003    0.24261011    0.51118991    -0.13700000
opls_145-207    C    0.15013999    0.26399010    0.46548001    -0.07640000
opls_700-208    C    0.13153000    0.26660001    0.42425990    0.07360000
opls_145-209    C    0.10317003    0.24775005    0.42994009    -0.09520000
opls_700-210    C    0.14179003    0.28828011    0.37297988    -0.06040000
opls_543-211    C    0.13517992    0.27973996    0.20290000    0.21440000
opls_716-212    C    0.12095006    0.25235005    0.22210998    -0.14840000
opls_507-213    C    0.15644004    0.31605000    0.39258000    0.22840000
opls_716-214    C    0.16129001    0.32474000    0.46079977    -0.14210000
opls_700-215    C    0.13892001    0.28795999    0.13698992    -0.07170000
opls_543-216    C    0.13632992    0.27984997    0.30734986    0.21430000
opls_716-217    C    0.12184000    0.25241012    0.28871998    -0.14230000
opls_507-218    C    0.15279991    0.31567993    0.11655984    0.22750000
opls_716-219    C    0.15764011    0.32406012    0.04813014    -0.14250000
opls_700-220    C    0.18932009    0.38776007    0.13564999    -0.06490000
opls_543-221    C    0.19485005    0.39625998    0.30591983    0.21440000
opls_716-222    C    0.20800998    0.42365009    0.28691004    -0.14920000
opls_507-223    C    0.17519004    0.35996996    0.11591009    0.22880000
opls_716-224    C    0.17140992    0.35125994    0.04772003    -0.14210000
opls_700-225    C    0.19196001    0.38801002    0.37169987    -0.05860000
opls_543-226    C    0.19378007    0.39614997    0.20148020    0.21440000
opls_716-227    C    0.20718002    0.42359003    0.22028006    -0.14840000
opls_507-228    C    0.17871010    0.36031010    0.39197019    0.22840000
opls_716-229    C    0.17498013    0.35193012    0.46039988    -0.14210000
opls_145-230    C    0.23754999    0.43392007    0.50790999    -0.13690000
opls_145-231    C    0.22869997    0.45323010    0.51301008    0.23540000
opls_145-232    C    0.20701999    0.45048995    0.47320004    -0.13700000
opls_145-233    C    0.19464001    0.42892007    0.42841021    -0.09520000
opls_700-234    C    0.20379996    0.40981995    0.42252009    0.07350000
opls_145-235    C    0.22521001    0.41232996    0.46291997    -0.07640000
opls_145-236    C    0.23890001    0.45059996    0.03766987    -0.13700000
opls_145-237    C    0.22094996    0.45326002    0.99416005    0.22450000
opls_145-238    C    0.19273002    0.43363008    0.99538990    -0.13700000
opls_145-239    C    0.18243992    0.41192996    0.04039014    -0.07630000
opls_700-240    C    0.20033998    0.40954007    0.08450002    0.07670000
opls_145-241    C    0.22866998    0.42892007    0.08233988    -0.09520000
opls_145-242    C    0.57727002    0.80811006    0.98404997    -0.13700000
opls_145-243    C    0.55646994    0.78031004    0.98235985    0.22570000
opls_145-244    C    0.55754000    0.76166007    0.02644002    -0.13690000
opls_145-245    C    0.57887002    0.77077009    0.07197993    -0.09520000
opls_700-246    C    0.59947003    0.79869003    0.07455993    0.08150000
opls_145-247    C    0.59859999    0.81727002    0.02992012    -0.07630000
opls_145-248    C    0.55838001    0.79258001    0.46141006    -0.13700000
opls_145-249    C    0.55445003    0.77052014    0.50128976    0.23540000
opls_145-250    C    0.57308004    0.76075997    0.49742000    -0.13690000
opls_145-251    C    0.59507995    0.77246999    0.45320978    -0.07640000
opls_700-252    C    0.59874003    0.79422006    0.41265014    0.07430000
opls_145-253    C    0.58037002    0.80433998    0.41747991    -0.09520000
opls_700-254    C    0.62073008    0.80528013    0.36214018    -0.05860000
opls_543-255    C    0.61270007    0.80349003    0.19186986    0.21450000
opls_716-256    C    0.58523011    0.79001015    0.21062004    -0.14760000
opls_507-257    C    0.64842996    0.81833009    0.38276996    0.22860000
opls_716-258    C    0.65670007    0.82261017    0.45129999    -0.14210000
opls_700-259    C    0.62116009    0.80859014    0.12612001    -0.06190000
opls_543-260    C    0.61255001    0.80213007    0.29627003    0.21430000
opls_716-261    C    0.58511012    0.78897010    0.27719984    -0.14230000
opls_507-262    C    0.64904996    0.82258004    0.10676002    0.22750000
opls_716-263    C    0.65790999    0.82715012    0.03864985    -0.14210000
opls_700-264    C    0.72106005    0.85696005    0.12839998    -0.06090000
opls_543-265    C    0.72908005    0.85833012    0.29860017    0.21440000
opls_716-266    C    0.75655002    0.87145005    0.27979981    -0.14230000
opls_507-267    C    0.69337994    0.84407005    0.10785008    0.22800000
opls_716-268    C    0.68514002    0.84036003    0.03930008    -0.14210000
opls_700-269    C    0.72066012    0.85379018    0.36442015    -0.06130000
opls_543-270    C    0.72925002    0.85966015    0.19418976    0.21430000
opls_716-271    C    0.75667001    0.87245005    0.21322001    -0.14760000
opls_507-272    C    0.69277994    0.83987004    0.38386976    0.22890000
opls_716-273    C    0.68393010    0.83588015    0.45197993    -0.14210000
opls_145-274    C    0.76546000    0.85696005    0.50732015    -0.13700000
opls_145-275    C    0.78594006    0.88490001    0.50704983    0.22570000
opls_145-276    C    0.78425012    0.90276008    0.46150991    -0.13700000
opls_145-277    C    0.76267013    0.89271013    0.41651016    -0.09520000
opls_700-278    C    0.74242996    0.86463002    0.41581024    0.08150000
opls_145-279    C    0.74388001    0.84685003    0.46195996    -0.07850000
opls_145-280    C    0.78335008    0.87116006    0.02683990    -0.13700000
opls_145-281    C    0.78682009    0.89341003    0.98826993    0.22320000
opls_145-282    C    0.76801002    0.90288000    0.99408017    -0.13690000
opls_145-283    C    0.74624015    0.89064016    0.03873021    -0.07620000
opls_700-284    C    0.74298996    0.86867007    0.07785982    0.07610000
opls_145-285    C    0.76156010    0.85887006    0.07122985    -0.09520000
opls_145-286    C    0.75911010    0.57037013    0.49943013    -0.13700000
opls_145-287    C    0.76759010    0.55070015    0.49674979    0.22480000
opls_145-288    C    0.78893999    0.55353008    0.53792022    -0.13700000
opls_145-289    C    0.80121008    0.57542999    0.58190979    -0.09520000
opls_700-290    C    0.79236000    0.59485003    0.58555014    0.07660000
opls_145-291    C    0.77134003    0.59227995    0.54371000    -0.07640000
opls_145-292    C    0.75829000    0.55426011    0.97237982    -0.13690000
opls_145-293    C    0.77669009    0.55246011    0.01615021    0.22570000
opls_145-294    C    0.80475014    0.57259015    0.01410014    -0.13700000
opls_145-295    C    0.81440995    0.59394002    0.96826993    -0.07850000
opls_700-296    C    0.79606993    0.59549998    0.92393015    0.07710000
opls_145-297    C    0.76790009    0.57560006    0.92683990    -0.09520000
opls_700-298    C    0.80652008    0.61716006    0.87244995    -0.06720000
opls_543-299    C    0.80061001    0.60856996    0.70218986    0.21440000
opls_716-300    C    0.78713008    0.58118005    0.72135989    -0.14920000
opls_507-301    C    0.82064005    0.64496008    0.89199990    0.23770000
opls_716-302    C    0.82412993    0.65368000    0.96022015    -0.14250000
opls_700-303    C    0.80391006    0.61678998    0.63630023    -0.06580000
opls_543-304    C    0.80172993    0.60872001    0.80664994    0.21440000
opls_716-305    C    0.78800004    0.58129996    0.78794993    -0.14520000
opls_507-306    C    0.81748996    0.64450002    0.61591983    0.22750000
opls_716-307    C    0.82166999    0.65290002    0.54751011    -0.14210000
opls_700-308    C    0.85494992    0.71659997    0.63491988    -0.06430000
opls_543-309    C    0.86097014    0.72518017    0.80508986    0.21430000
opls_716-310    C    0.87523008    0.75255005    0.78593006    -0.14610000
opls_507-311    C    0.84020006    0.68880016    0.61525985    0.22750000
opls_716-312    C    0.83561003    0.68009014    0.54711022    -0.14370000
opls_700-313    C    0.85705013    0.71696014    0.87099995    -0.06200000
opls_543-314    C    0.86012001    0.72503011    0.70062978    0.21440000
opls_716-315    C    0.87457001    0.75246997    0.71930008    -0.14920000
opls_507-316    C    0.84300011    0.68925010    0.89135989    0.23520000
opls_716-317    C    0.83785007    0.68086000    0.95984024    -0.13840000
opls_145-318    C    0.89996995    0.76197999    0.01165993    -0.13700000
opls_145-319    C    0.89190997    0.78195999    0.01348010    0.23510000
opls_145-320    C    0.87172003    0.78004997    0.96960986    -0.13700000
opls_145-321    C    0.86001004    0.75862003    0.92431007    -0.09510000
opls_700-322    C    0.86834012    0.73879008    0.92184989    0.07360000
opls_145-323    C    0.88829009    0.74050010    0.96615995    -0.07630000
opls_145-324    C    0.90370004    0.77943016    0.53551020    -0.13700000
opls_145-325    C    0.88530997    0.78222005    0.49380985    0.22570000
opls_145-326    C    0.85708998    0.76268009    0.49666017    -0.13700000
opls_145-327    C    0.84725005    0.74094014    0.54143977    -0.07640000
opls_700-328    C    0.86558012    0.73837006    0.58365983    0.07750000
opls_145-329    C    0.89390994    0.75766998    0.57994983    -0.07620000
opls_145-330    C    0.23812003    0.14099991    0.48205007    -0.13700000
opls_145-331    C    0.21782997    0.11301000    0.48077980    0.22480000
opls_145-332    C    0.21937998    0.09480008    0.52544981    -0.13700000
opls_145-333    C    0.24072004    0.10452000    0.57107009    -0.09520000
opls_700-334    C    0.26079988    0.13261992    0.57314987    0.07710000
opls_145-335    C    0.25945997    0.15076999    0.52796990    -0.07620000
opls_145-336    C    0.21963999    0.12561001    0.95949978    -0.13700000
opls_145-337    C    0.21672009    0.10414002    0.00022990    0.23150000
opls_145-338    C    0.23631008    0.09556004    0.99711022    -0.13700000
opls_145-339    C    0.25825002    0.10783992    0.95278993    -0.07640000
opls_700-340    C    0.26092008    0.12898009    0.91137986    0.07360000
opls_145-341    C    0.24157994    0.13792994    0.91553017    -0.09520000
opls_700-342    C    0.28280999    0.14045006    0.86047976    -0.06510000
opls_543-343    C    0.27432000    0.13814005    0.69022015    0.21440000
opls_716-344    C    0.24689002    0.12432993    0.70930008    -0.14760000
opls_507-345    C    0.31059001    0.15396999    0.88060007    0.22750000
opls_716-346    C    0.31908007    0.15870003    0.94894988    -0.14250000
opls_700-347    C    0.28262002    0.14309011    0.62436998    -0.06210000
opls_543-348    C    0.27443005    0.13703995    0.79468024    0.21440000
opls_716-349    C    0.24694010    0.12347007    0.77589012    -0.14920000
opls_507-350    C    0.31045006    0.15721004    0.60450977    0.22890000
opls_716-351    C    0.31909991    0.16165999    0.53623009    -0.14210000
opls_700-352    C    0.38253001    0.19156012    0.62478983    -0.06200000
opls_543-353    C    0.39106012    0.19345011    0.79493011    0.21440000
opls_716-354    C    0.41844995    0.20608005    0.77561005    -0.14920000
opls_507-355    C    0.35477998    0.17877001    0.60478983    0.22860000
opls_716-356    C    0.34631996    0.17494008    0.53636988    -0.14200000
opls_700-357    C    0.38281001    0.18923999    0.86090984    -0.06200000
opls_543-358    C    0.39090996    0.19437003    0.69047976    0.21430000
opls_716-359    C    0.41837992    0.20681998    0.70898982    -0.14620000
opls_507-360    C    0.35496996    0.17568993    0.88086016    0.23770000
opls_716-361    C    0.34632998    0.17207011    0.94911013    -0.14250000
opls_145-362    C    0.42722011    0.19161007    0.00393015    -0.13690000
opls_145-363    C    0.44833992    0.21928996    0.00286981    0.22590000
opls_145-364    C    0.44725999    0.23728998    0.95674979    -0.13700000
opls_145-365    C    0.42564012    0.22763012    0.91192976    -0.09520000
opls_700-366    C    0.40472995    0.19979005    0.91201987    0.08190000
opls_145-367    C    0.40558998    0.18188003    0.95871024    -0.07850000
opls_145-368    C    0.44388008    0.20439006    0.52122011    -0.13700000
opls_145-369    C    0.44785999    0.22699007    0.48331986    0.23350000
opls_145-370    C    0.42966000    0.23715995    0.49024987    -0.13690000
opls_145-371    C    0.40801001    0.22524993    0.53529005    -0.07620000
opls_700-372    C    0.40428995    0.20295001    0.57378988    0.07670000
opls_145-373    C    0.42223998    0.19245011    0.56608982    -0.09520000
opls_700-374    C    0.72413010    0.28735008    0.17395012    0.08130000
opls_145-375    C    0.71732005    0.25961012    0.17687984    -0.07620000
opls_145-376    C    0.73149996    0.25017007    0.13822999    -0.07620000
opls_700-377    C    0.75260003    0.26842994    0.09644002    0.06990000
opls_145-378    C    0.75934006    0.29604008    0.09350007    -0.09360000
opls_145-379    C    0.74513002    0.30544999    0.13186011    -0.09530000
opls_142-380    C    0.76735993    0.25917999    0.05380985    0.09840000
opls_700-381    C    0.70893002    0.29753998    0.21290000    0.03360000
opls_145-382    C    0.69654002    0.31053999    0.17934976    -0.08330000
opls_700-383    C    0.68216015    0.32077013    0.21380985    0.06780000
opls_700-384    C    0.56290011    0.28291004    0.16890994    0.08240000
opls_145-385    C    0.56121997    0.29973007    0.12065998    -0.09530000
opls_145-386    C    0.53788008    0.28980003    0.08109980    -0.09380000
opls_700-387    C    0.51591005    0.26290011    0.08885977    0.06900000
opls_145-388    C    0.51746000    0.24581011    0.13662023    -0.07640000
opls_145-389    C    0.54089002    0.25577998    0.17638011    -0.07850000
opls_142-390    C    0.49213994    0.25333003    0.04508986    0.01620000
opls_700-391    C    0.58812995    0.29387001    0.20939993    0.03280000
opls_145-392    C    0.61377998    0.30786011    0.17713019    -0.08330000
opls_700-393    C    0.63821990    0.31920996    0.21271979    0.04810000
opls_700-394    C    0.71325994    0.43830996    0.18295991    0.08410000
opls_145-395    C    0.74060007    0.46001999    0.18954021    -0.07850000
opls_145-396    C    0.75034998    0.48368007    0.15071015    -0.07850000
opls_700-397    C    0.73281001    0.48574013    0.10491988    0.06760000
opls_145-398    C    0.70564003    0.46408996    0.09839998    -0.09380000
opls_145-399    C    0.69594997    0.44052007    0.13691978    -0.09530000
opls_142-400    C    0.74226007    0.50949000    0.06124008    0.01620000
opls_700-401    C    0.70276004    0.41243006    0.22058984    0.03360000
opls_145-402    C    0.69087008    0.38770001    0.18487994    -0.08170000
opls_700-403    C    0.68007004    0.36256996    0.21708003    0.04610000
opls_701-404    C    0.66575997    0.33229006    0.31453022    -0.06180000
opls_700-405    C    0.71713994    0.27960002    0.32018022    0.08720000
opls_145-406    C    0.74510011    0.28691004    0.31696995    -0.07850000
opls_145-407    C    0.75514005    0.27324006    0.35578978    -0.07630000
opls_700-408    C    0.73723992    0.25208999    0.39802007    0.06810000
opls_145-409    C    0.70942991    0.24482992    0.40107983    -0.09360000
opls_145-410    C    0.69945996    0.25853995    0.36269008    -0.09530000
opls_142-411    C    0.74689006    0.23777997    0.44129999    0.01590000
opls_700-412    C    0.70619002    0.29442006    0.28186986    0.03360000
opls_145-413    C    0.69235008    0.30566011    0.31617018    -0.08170000
opls_700-414    C    0.68092991    0.31914000    0.28261020    0.04510000
opls_700-415    C    0.56165994    0.27604997    0.31612001    0.08270000
opls_145-416    C    0.54103999    0.28335008    0.31273976    -0.07640000
opls_145-417    C    0.51719005    0.26944006    0.35094004    -0.07640000
opls_700-418    C    0.51385001    0.24815996    0.39276996    0.06900000
opls_145-419    C    0.53443008    0.24097006    0.39619015    -0.09360000
opls_145-420    C    0.55823002    0.25486997    0.35828990    -0.09530000
opls_142-421    C    0.48982009    0.23377006    0.43561979    0.09840000
opls_700-422    C    0.58750009    0.29111004    0.27858020    0.03350000
opls_145-423    C    0.61238002    0.30336000    0.31401003    -0.08170000
opls_700-424    C    0.63749004    0.31769995    0.28152014    0.04630000
opls_700-425    C    0.71810003    0.43661006    0.33058010    0.08660000
opls_145-426    C    0.71178006    0.45784001    0.32487994    -0.07640000
opls_145-427    C    0.72508990    0.48126995    0.36455993    -0.07640000
opls_700-428    C    0.74480005    0.48357997    0.41024987    0.06900000
opls_145-429    C    0.75093007    0.46235002    0.41615021    -0.09390000
opls_145-430    C    0.73764005    0.43899004    0.37674005    -0.09380000
opls_142-431    C    0.75906993    0.50753994    0.45331012    0.02070000
opls_700-432    C    0.70424006    0.41152996    0.28988018    0.03370000
opls_145-433    C    0.69239008    0.38582013    0.32195996    -0.08300000
opls_700-434    C    0.67986010    0.36149008    0.28591983    0.07180000
opls_701-435    C    0.66717009    0.33466013    0.18335980    -0.06150000
opls_700-436    C    0.94186007    0.89549011    0.18075009    0.08290000
opls_145-437    C    0.92056010    0.89221002    0.13920998    -0.09370000
opls_145-438    C    0.90655998    0.86858998    0.10088013    -0.11150000
opls_700-439    C    0.91378010    0.84807005    0.10337003    0.07100000
opls_145-440    C    0.93511999    0.85120999    0.14484000    -0.07640000
opls_145-441    C    0.94913998    0.87489009    0.18348010    -0.07640000
opls_142-442    C    0.89942012    0.82430016    0.05988018    0.09840000
opls_700-443    C    0.95710015    0.92122016    0.21847986    0.03350000
opls_145-444    C    0.96905016    0.94611017    0.18327018    -0.08170000
opls_700-445    C    0.98346004    0.97112010    0.21595977    0.04810000
opls_700-446    C    0.94938008    0.89638010    0.32753982    0.08470000
opls_145-447    C    0.92200002    0.87469009    0.32107009    -0.07850000
opls_145-448    C    0.91209003    0.85124012    0.36060981    -0.07630000
opls_700-449    C    0.92949013    0.84935013    0.40708977    0.06880000
opls_145-450    C    0.95666001    0.87100010    0.41378014    -0.09360000
opls_145-451    C    0.96653008    0.89439001    0.37440992    -0.09520000
opls_142-452    C    0.91993004    0.82551998    0.45062004    0.01620000
opls_700-453    C    0.96020007    0.92169013    0.28755005    0.03370000
opls_145-454    C    0.97418009    0.94722018    0.32007988    -0.08330000
opls_700-455    C    0.98524993    0.97170999    0.28480006    0.06880000
opls_700-456    C    0.90008004    0.95156013    0.67367980    0.08400000
opls_145-457    C    0.89733999    0.96812010    0.62645999    -0.09530000
opls_145-458    C    0.87387011    0.95750007    0.58721007    -0.11150000
opls_700-459    C    0.85282016    0.93013018    0.59418002    0.07100000
opls_145-460    C    0.85539005    0.91329012    0.64092981    -0.07640000
opls_145-461    C    0.87897995    0.92397001    0.68041985    -0.07850000
opls_142-462    C    0.82899001    0.91988002    0.55041011    0.01620000
opls_700-463    C    0.92571002    0.96323010    0.71288978    0.03360000
opls_145-464    C    0.95086013    0.97803012    0.67913010    -0.08170000
opls_700-465    C    0.97570011    0.99007017    0.71301008    0.04510000
opls_700-466    C    0.90057009    0.94489015    0.82086016    0.08150000
opls_145-467    C    0.87920017    0.95111018    0.81728021    -0.07640000
opls_145-468    C    0.85568013    0.93687012    0.85629000    -0.07620000
opls_700-469    C    0.85341000    0.91633017    0.89917978    0.06710000
opls_145-470    C    0.87476998    0.91025008    0.90295991    -0.09360000
opls_145-471    C    0.89826006    0.92450004    0.86416979    -0.09530000
opls_142-472    C    0.82954004    0.90152004    0.94224003    0.09840000
opls_700-473    C    0.92597008    0.96035002    0.78188983    0.03360000
opls_145-474    C    0.95129004    0.97320018    0.81574984    -0.08330000
opls_700-475    C    0.97594016    0.98829019    0.78169987    0.06880000
opls_700-476    C    0.94388005    0.04962997    0.18094004    0.08470000
opls_145-477    C    0.95088010    0.07744011    0.18514003    -0.07850000
opls_145-478    C    0.93717999    0.08747004    0.14640008    -0.07630000
opls_700-479    C    0.91637000    0.06975011    0.10320978    0.06810000
opls_145-480    C    0.90939992    0.04207991    0.09920998    -0.09360000
opls_145-481    C    0.92312009    0.03211004    0.13753982    -0.09530000
opls_142-482    C    0.90224999    0.07954000    0.05969997    0.01590000
opls_700-483    C    0.95890002    0.03877010    0.21871024    0.03360000
opls_145-484    C    0.97029006    0.02528010    0.18363012    -0.08150000
opls_700-485    C    0.98418007    0.01411002    0.21632020    0.04610000
opls_701-486    C    0.00049010    0.00057007    0.31448005    -0.06160000
opls_700-487    C    0.95185006    0.05622007    0.32743023    0.08160000
opls_145-488    C    0.92410993    0.04951996    0.32425016    -0.07620000
opls_145-489    C    0.91457003    0.06349995    0.36329989    -0.07620000
opls_700-490    C    0.93275997    0.08429997    0.40583995    0.07100000
opls_145-491    C    0.96034989    0.09087995    0.40915007    -0.09390000
opls_145-492    C    0.96985010    0.07687003    0.37041985    -0.09530000
opls_142-493    C    0.92352013    0.09911009    0.44834981    0.09840000
opls_700-494    C    0.96223994    0.04138992    0.28772977    0.03360000
opls_145-495    C    0.97567005    0.02922995    0.32039014    -0.08320000
opls_700-496    C    0.98608000    0.01520992    0.28510009    0.06680000
opls_700-497    C    0.04869000    0.11003002    0.68444011    0.07930000
opls_145-498    C    0.07644003    0.13103994    0.68821977    -0.07640000
opls_145-499    C    0.08606999    0.15476009    0.64977010    -0.07640000
opls_700-500    C    0.06799005    0.15758011    0.60719984    0.07180000
opls_145-501    C    0.04037002    0.13663995    0.60355998    -0.09360000
opls_145-502    C    0.03078009    0.11298007    0.64173007    -0.09530000
opls_142-503    C    0.07736999    0.18132007    0.56354001    0.02070000
opls_700-504    C    0.03844999    0.08407995    0.72118017    0.03640000
opls_145-505    C    0.02658004    0.05956001    0.68472018    -0.08150000
opls_700-506    C    0.01648003    0.03433997    0.71613998    0.04510000
opls_701-507    C    0.00464000    0.00382993    0.81267011    -0.06130000
opls_700-508    C    0.05432004    0.10796995    0.83139009    0.08650000
opls_145-509    C    0.04817994    0.12930991    0.82525011    -0.07640000
opls_145-510    C    0.06136015    0.15269012    0.86502995    -0.07620000
opls_700-511    C    0.08075001    0.15483996    0.91141980    0.07300000
opls_145-512    C    0.08667993    0.13350001    0.91800010    -0.09390000
opls_145-513    C    0.07350999    0.11018998    0.87838001    -0.09530000
opls_142-514    C    0.09484002    0.17872997    0.95459987    0.09840000
opls_700-515    C    0.04063002    0.08300007    0.79020993    0.03360000
opls_145-516    C    0.02963997    0.05718993    0.82146023    -0.08320000
opls_700-517    C    0.01722009    0.03304007    0.78487020    0.06720000
opls_700-518    C    0.10211004    0.05311996    0.16534022    0.08600000
opls_145-519    C    0.12380004    0.04744008    0.17141006    -0.07640000
opls_145-520    C    0.14725994    0.06109995    0.13190005    -0.07640000
opls_700-521    C    0.14918000    0.08053010    0.08597000    0.06930000
opls_145-522    C    0.12748012    0.08600007    0.07949978    -0.09360000
opls_145-523    C    0.10407007    0.07234000    0.11881009    -0.09520000
opls_142-524    C    0.17317993    0.09507995    0.04301008    0.02070000
opls_700-525    C    0.07706992    0.03895999    0.20627977    0.03180000
opls_145-526    C    0.05120996    0.02675998    0.17474989    -0.08300000
opls_700-527    C    0.02695994    0.01382994    0.21128002    0.07380000
opls_700-528    C    0.10416997    0.04827001    0.31280016    0.08640000
opls_145-529    C    0.12535003    0.07587003    0.30702012    -0.07850000
opls_145-530    C    0.14901989    0.08598996    0.34602991    -0.07630000
opls_700-531    C    0.15156010    0.06855011    0.39113000    0.07060000
opls_145-532    C    0.13045996    0.04113006    0.39681993    -0.11160000
opls_145-533    C    0.10690989    0.03107990    0.35811992    -0.09360000
opls_142-534    C    0.17522014    0.07833010    0.43517023    0.09840000
opls_700-535    C    0.07818991    0.03740994    0.27553992    0.03350000
opls_145-536    C    0.05356997    0.02504997    0.31171010    -0.07990000
opls_700-537    C    0.02828997    0.01388009    0.28007014    0.04950000
opls_701-538    C    0.99759994    0.99942002    0.18335980    -0.06150000
opls_700-539    C    0.06232009    0.96107014    0.66103015    0.08270000
opls_145-540    C    0.05656002    0.93388003    0.67026984    -0.09520000
opls_145-541    C    0.06877013    0.92282016    0.63020993    -0.09520000
opls_700-542    C    0.08684004    0.93883999    0.58039014    0.06960000
opls_145-543    C    0.09245998    0.96590008    0.57077980    -0.09380000
opls_145-544    C    0.08019001    0.97696015    0.61075009    -0.09520000
opls_142-545    C    0.09952000    0.92750004    0.53704009    0.09840000
opls_700-546    C    0.04915000    0.97268006    0.70273976    0.03360000
opls_145-547    C    0.03457995    0.98395004    0.67184014    -0.08320000
opls_700-548    C    0.02039004    0.99362002    0.70905996    0.06730000
opls_700-549    C    0.06621002    0.96184001    0.80798013    0.07750000
opls_145-550    C    0.09357000    0.97050008    0.78964006    -0.07630000
opls_145-551    C    0.10921007    0.96151018    0.82406020    -0.09370000
opls_700-552    C    0.09769003    0.94398014    0.87749988    0.13140000
opls_145-553    C    0.07061992    0.93555000    0.89676002    -0.09530000
opls_145-554    C    0.05498008    0.94455001    0.86233013    -0.07640000
opls_148-555    C    0.11420004    0.93426001    0.91374994    -0.36920000
opls_700-556    C    0.04972001    0.97163011    0.77222006    0.03270000
opls_145-557    C    0.03512994    0.98133002    0.80915007    -0.08170000
opls_700-558    C    0.02056998    0.99211000    0.77792996    0.04460000
opls_701-559    C    0.00407995    0.00660001    0.68160976    -0.06050000
opls_146-560    H    0.17154005    0.72582000    0.99331986    0.04910000
opls_146-561    H    0.25366012    0.79908012    0.02126979    0.04910000
opls_146-562    H    0.23318006    0.81859015    0.10047976    0.04850000
opls_146-563    H    0.15111011    0.74539009    0.07271979    0.04920000
opls_146-564    H    0.19291997    0.73502001    0.49090010    0.04850000
opls_146-565    H    0.25219998    0.82175011    0.53777020    0.04910000
opls_146-566    H    0.22890009    0.83716003    0.45542010    0.04850000
opls_146-567    H    0.16960008    0.75042002    0.40945010    0.04910000
opls_547-568    H    0.21040012    0.77255007    0.18952998    0.04910000
opls_547-569    H    0.17796013    0.82242008    0.50811017    0.04910000
opls_547-570    H    0.21562008    0.77626008    0.32210998    0.04910000
opls_547-571    H    0.16122012    0.79730014    0.00312990    0.04910000
opls_545-572    H    0.16516002    0.81222998    0.24834981    0.28490000
opls_547-573    H    0.10285002    0.87211011    0.31634991    0.04910000
opls_547-574    H    0.13000995    0.82127003    0.00662023    0.04910000
opls_547-575    H    0.09468000    0.86523002    0.18482977    0.04910000
opls_547-576    H    0.14937006    0.84885003    0.49495982    0.04910000
opls_146-577    H    0.07835001    0.84844012    0.53979981    0.04910000
opls_146-578    H    0.13428009    0.92923008    0.45148020    0.04910000
opls_146-579    H    0.15226000    0.90657000    0.37418976    0.04910000
opls_146-580    H    0.09623002    0.82580006    0.46231017    0.04910000
opls_909-581    H    0.06785000    0.85511010    0.88224003    0.30940000
opls_909-582    H    0.05672992    0.87287998    0.94581024    0.30940000
opls_146-583    H    0.11171006    0.89922014    0.00120988    0.04910000
opls_146-584    H    0.05421997    0.81053999    0.97299011    0.04910000
opls_146-585    H    0.07901010    0.79952016    0.06128976    0.04910000
opls_146-586    H    0.13653012    0.88831012    0.08937996    0.04910000
opls_545-587    H    0.14601004    0.83002999    0.24397984    0.28480000
opls_146-588    H    0.45946001    0.70045011    0.71018022    0.04910000
opls_146-589    H    0.50197001    0.72402000    0.63821002    0.04910000
opls_146-590    H    0.46840012    0.77157009    0.54382982    0.04910000
opls_146-591    H    0.42597004    0.74800000    0.61504992    0.04910000
opls_144-592    H    0.51339005    0.77973006    0.50932005    0.02900000
opls_146-593    H    0.38858015    0.69849015    0.62097998    0.04910000
opls_146-594    H    0.25254007    0.58014000    0.63883980    0.04910000
opls_146-595    H    0.22650002    0.53724998    0.56988018    0.04910000
opls_146-596    H    0.27901008    0.50564005    0.64521991    0.04910000
opls_146-597    H    0.30505013    0.54855009    0.71499002    0.04910000
opls_144-598    H    0.21883008    0.49348998    0.52924017    0.02900000
opls_146-599    H    0.30573002    0.61695015    0.62855000    0.04910000
opls_146-600    H    0.30106998    0.75960001    0.72320978    0.04910000
opls_146-601    H    0.27403996    0.77586008    0.65512006    0.04910000
opls_146-602    H    0.22609001    0.69290006    0.56984998    0.04910000
opls_146-603    H    0.25329000    0.67681996    0.63649019    0.04910000
opls_144-604    H    0.21530008    0.72792011    0.53557011    0.02900000
opls_146-605    H    0.30534005    0.69355000    0.62981004    0.04910000
opls_702-606    H    0.33970999    0.67178012    0.87114023    0.04910000
opls_146-607    H    0.46252017    0.76014015    0.77214018    0.04910000
opls_146-608    H    0.50543008    0.77734017    0.84235010    0.04850000
opls_146-609    H    0.46972003    0.69561998    0.93448980    0.04850000
opls_146-610    H    0.42701004    0.67852997    0.86523014    0.04850000
opls_144-611    H    0.51439009    0.73123012    0.97150991    0.02900000
opls_146-612    H    0.39242999    0.69498014    0.86870001    0.04910000
opls_146-613    H    0.24605002    0.54702997    0.78124008    0.04910000
opls_146-614    H    0.22726002    0.50464995    0.85327018    0.04910000
opls_146-615    H    0.30706999    0.54055999    0.95527982    0.04850000
opls_146-616    H    0.32580012    0.58284011    0.88397984    0.04850000
opls_144-617    H    0.27065005    0.49531001    0.98887000    0.02900000
opls_146-618    H    0.31455006    0.61862012    0.87595977    0.04920000
opls_146-619    H    0.24302998    0.69403009    0.79711022    0.04910000
opls_146-620    H    0.22225997    0.71586003    0.86887000    0.04910000
opls_146-621    H    0.30522015    0.77570012    0.94054016    0.04910000
opls_146-622    H    0.32591006    0.75359010    0.87013005    0.04850000
opls_144-623    H    0.26590002    0.77958000    0.97875992    0.02900000
opls_146-624    H    0.31418009    0.69983009    0.87740977    0.04910000
opls_702-625    H    0.33490004    0.67016010    0.62905996    0.04910000
opls_146-626    H    0.84470997    0.07669996    0.47659003    0.04850000
opls_146-627    H    0.93067001    0.13943995    0.52139983    0.04850000
opls_146-628    H    0.91356007    0.16223997    0.60056987    0.04910000
opls_146-629    H    0.82766000    0.09947996    0.55606010    0.04850000
opls_146-630    H    0.86457006    0.07336002    0.97815011    0.04850000
opls_146-631    H    0.92431000    0.15854007    0.03644002    0.04910000
opls_146-632    H    0.90329999    0.17650995    0.95431981    0.04910000
opls_146-633    H    0.84357997    0.09134001    0.89664994    0.04910000
opls_547-634    H    0.88634991    0.11758998    0.67992012    0.04910000
opls_547-635    H    0.84884993    0.15799992    0.00538016    0.04910000
opls_547-636    H    0.88905996    0.11698008    0.81276022    0.04910000
opls_547-637    H    0.84783003    0.15585998    0.49657006    0.04910000
opls_545-638    H    0.84509014    0.16058011    0.74416005    0.28720000
opls_547-639    H    0.78448007    0.22119007    0.82103015    0.04910000
opls_547-640    H    0.82176001    0.18503999    0.50327992    0.04910000
opls_547-641    H    0.78374998    0.22377005    0.68817008    0.04910000
opls_547-642    H    0.82031991    0.18466992    0.99634991    0.04910000
opls_146-643    H    0.74479001    0.18037001    0.02766987    0.04910000
opls_146-644    H    0.80681003    0.26588010    0.97779017    0.04910000
opls_146-645    H    0.82892003    0.24828999    0.89790999    0.04910000
opls_146-646    H    0.76681001    0.16283006    0.94736983    0.04910000
opls_146-647    H    0.74026008    0.19925011    0.52054016    0.04910000
opls_146-648    H    0.82594012    0.26015006    0.46785008    0.04910000
opls_146-649    H    0.84344995    0.23844994    0.54932979    0.04910000
opls_146-650    H    0.75778997    0.17763007    0.60154011    0.04910000
opls_545-651    H    0.82674993    0.17919994    0.74242024    0.28480000
opls_146-652    H    0.07868997    0.24037006    0.96331986    0.04910000
opls_146-653    H    0.13124997    0.20864001    0.03871998    0.04850000
opls_146-654    H    0.15309002    0.24833994    0.11845015    0.04910000
opls_146-655    H    0.10030991    0.27984997    0.04372997    0.04910000
opls_146-656    H    0.07046004    0.21117004    0.47937996    0.04910000
opls_146-657    H    0.15583000    0.24079009    0.54455993    0.04910000
opls_146-658    H    0.17321003    0.27940002    0.46156008    0.04910000
opls_146-659    H    0.08778989    0.24982993    0.39732015    0.04850000
opls_547-660    H    0.11145007    0.23528998    0.18395012    0.04910000
opls_547-661    H    0.15574989    0.31309995    0.50905022    0.04910000
opls_547-662    H    0.11161997    0.23206005    0.31661000    0.04910000
opls_547-663    H    0.15203993    0.31216001    0.00024012    0.04910000
opls_545-664    H    0.15641009    0.31951007    0.24770006    0.28480000
opls_547-665    H    0.21680989    0.44068994    0.32519020    0.04910000
opls_547-666    H    0.17994005    0.36736996    0.00726998    0.04910000
opls_547-667    H    0.21661999    0.44392998    0.19246018    0.04910000
opls_547-668    H    0.18349006    0.36823003    0.50041985    0.04910000
opls_146-669    H    0.25490997    0.43574009    0.54052993    0.04850000
opls_146-670    H    0.19944008    0.46595002    0.47738980    0.04860000
opls_146-671    H    0.17699003    0.42676010    0.39638011    0.04910000
opls_146-672    H    0.23260992    0.39672995    0.45913010    0.04910000
opls_146-673    H    0.26198003    0.46621999    0.03662997    0.04910000
opls_146-674    H    0.17799998    0.43526001    0.95962009    0.04910000
opls_146-675    H    0.15942002    0.39608000    0.04133992    0.04910000
opls_146-676    H    0.24350002    0.42701005    0.11721981    0.04910000
opls_545-677    H    0.17490998    0.35645994    0.24674979    0.28490000
opls_146-678    H    0.57687015    0.82339015    0.94796016    0.04910000
opls_146-679    H    0.54091997    0.73893002    0.02514003    0.04910000
opls_146-680    H    0.57965001    0.75550011    0.10743997    0.04910000
opls_146-681    H    0.61534002    0.83997015    0.03090984    0.04850000
opls_146-682    H    0.54357006    0.80098002    0.46482003    0.04910000
opls_146-683    H    0.57039006    0.74317997    0.53037991    0.04910000
opls_146-684    H    0.61012003    0.76433004    0.45005017    0.04910000
opls_146-685    H    0.58335010    0.82226012    0.38542010    0.04910000
opls_547-686    H    0.56825000    0.78241014    0.17218986    0.04910000
opls_547-687    H    0.64470009    0.81696001    0.49909016    0.04910000
opls_547-688    H    0.56465008    0.77855008    0.30476012    0.04910000
opls_547-689    H    0.64635000    0.82171007    0.99028006    0.04910000
opls_545-690    H    0.65242996    0.82222008    0.23730018    0.28720000
opls_547-691    H    0.77353005    0.87885005    0.31821002    0.04850000
opls_547-692    H    0.70156002    0.84849998    0.99947981    0.04910000
opls_547-693    H    0.77712000    0.88258009    0.18563002    0.04910000
opls_547-694    H    0.69998996    0.84389007    0.49261020    0.04910000
opls_146-695    H    0.76633005    0.84231999    0.54463007    0.04910000
opls_146-696    H    0.80057006    0.92560014    0.46120988    0.04910000
opls_146-697    H    0.76137001    0.90734007    0.37990015    0.04910000
opls_146-698    H    0.72741005    0.82405001    0.46259023    0.04850000
opls_146-699    H    0.79838008    0.86307006    0.02195996    0.04920000
opls_146-700    H    0.77039002    0.92066000    0.96233988    0.04910000
opls_146-701    H    0.73103010    0.89852004    0.04342994    0.04910000
opls_146-702    H    0.75890008    0.84078005    0.10216989    0.04910000
opls_545-703    H    0.68939002    0.84015013    0.23900005    0.28720000
opls_146-704    H    0.74215001    0.56858004    0.46542984    0.04910000
opls_146-705    H    0.79633005    0.53789002    0.53549998    0.04910000
opls_146-706    H    0.81854002    0.57762008    0.61517997    0.04850000
opls_146-707    H    0.76416010    0.60809008    0.54568019    0.04910000
opls_146-708    H    0.73534002    0.53821015    0.97393990    0.04910000
opls_146-709    H    0.81986004    0.57164010    0.04988018    0.04910000
opls_146-710    H    0.83729001    0.61021000    0.96674005    0.04910000
opls_146-711    H    0.75268997    0.57680006    0.89184989    0.04910000
opls_547-712    H    0.77810002    0.56409995    0.68318007    0.04910000
opls_547-713    H    0.81761011    0.64204016    0.00843992    0.04910000
opls_547-714    H    0.77834005    0.56098003    0.81589012    0.04910000
opls_547-715    H    0.81547998    0.64101002    0.49960012    0.04910000
opls_545-716    H    0.82082004    0.64836999    0.74702012    0.28480000
opls_547-717    H    0.88459002    0.76960002    0.82412985    0.04910000
opls_547-718    H    0.84379996    0.69619005    0.50664020    0.04910000
opls_547-719    H    0.88490001    0.77281013    0.69137986    0.04910000
opls_547-720    H    0.84554997    0.69717003    0.99984024    0.04910000
opls_146-721    H    0.91614997    0.76313004    0.04738006    0.04850000
opls_146-722    H    0.86481014    0.79608012    0.97088987    0.04850000
opls_146-723    H    0.84356012    0.75716017    0.88902976    0.04850000
opls_146-724    H    0.89504002    0.72435003    0.96519020    0.04910000
opls_146-725    H    0.92678005    0.79499013    0.53318007    0.04910000
opls_146-726    H    0.84199003    0.76442003    0.46237007    0.04910000
opls_146-727    H    0.82421997    0.72519998    0.54374020    0.04910000
opls_146-728    H    0.90910015    0.75563014    0.61335980    0.04850000
opls_545-729    H    0.83969003    0.68537002    0.74621986    0.28720000
opls_146-730    H    0.23728999    0.15592005    0.44555989    0.04910000
opls_146-731    H    0.20314006    0.07194000    0.52455019    0.04910000
opls_146-732    H    0.24192005    0.08960007    0.60694998    0.04910000
opls_146-733    H    0.27581996    0.17359994    0.52858994    0.04910000
opls_146-734    H    0.20403991    0.13305997    0.96224977    0.04910000
opls_146-735    H    0.23444993    0.07849996    0.03075983    0.04910000
opls_146-736    H    0.27406997    0.10065994    0.95020993    0.04910000
opls_146-737    H    0.24373014    0.15538011    0.88286981    0.04910000
opls_547-738    H    0.22981008    0.11640010    0.67107983    0.04910000
opls_547-739    H    0.30725997    0.15328000    0.99696021    0.04910000
opls_547-740    H    0.22654997    0.11285004    0.80371000    0.04910000
opls_547-741    H    0.30736995    0.15610003    0.48807998    0.04910000
opls_545-742    H    0.31416998    0.15750993    0.73519020    0.28490000
opls_547-743    H    0.43553995    0.21337004    0.81369003    0.04910000
opls_547-744    H    0.36261997    0.18306991    0.49627003    0.04910000
opls_547-745    H    0.43873008    0.21654012    0.68105012    0.04910000
opls_547-746    H    0.36252002    0.18039004    0.98945010    0.04910000
opls_146-747    H    0.42759002    0.17688002    0.04175978    0.04910000
opls_146-748    H    0.46412995    0.25993995    0.95581998    0.04910000
opls_146-749    H    0.42484999    0.24237007    0.87480980    0.04910000
opls_146-750    H    0.38862008    0.15928001    0.95992986    0.04910000
opls_146-751    H    0.45837003    0.19568994    0.51542984    0.04850000
opls_146-752    H    0.43243000    0.25524005    0.45909016    0.04910000
opls_146-753    H    0.39328998    0.23368007    0.54084019    0.04910000
opls_146-754    H    0.41919999    0.17410004    0.59653987    0.04910000
opls_545-755    H    0.35122005    0.17563007    0.73600019    0.28720000
opls_146-756    H    0.70018006    0.24470010    0.21082996    0.04910000
opls_146-757    H    0.72590006    0.22761010    0.14069018    0.04910000
opls_146-758    H    0.77652014    0.31097012    0.05966977    0.04910000
opls_146-759    H    0.75067996    0.32798995    0.12883006    0.04910000
opls_144-760    H    0.78552999    0.27480993    0.02331012    0.02900000
opls_146-761    H    0.69831012    0.31264009    0.12408991    0.04910000
opls_146-762    H    0.57902996    0.32171007    0.11352004    0.04910000
opls_146-763    H    0.53665004    0.30368013    0.04216015    0.04850000
opls_146-764    H    0.49963999    0.22379007    0.14308022    0.04910000
opls_146-765    H    0.54203995    0.24173993    0.21499002    0.04910000
opls_144-766    H    0.49163004    0.26795997    0.00717987    0.02900000
opls_146-767    H    0.61451993    0.30987002    0.12180995    0.04910000
opls_146-768    H    0.75496007    0.45843010    0.22655984    0.04850000
opls_146-769    H    0.77254995    0.50128999    0.15630997    0.04910000
opls_146-770    H    0.69124008    0.46563011    0.06143003    0.04910000
opls_146-771    H    0.67375992    0.42297001    0.13073986    0.04910000
opls_144-772    H    0.72715997    0.51059010    0.02568019    0.02900000
opls_146-773    H    0.69006996    0.38825006    0.12945010    0.04910000
opls_702-774    H    0.66514994    0.33136003    0.37001023    0.04910000
opls_146-775    H    0.75974999    0.30404999    0.28267985    0.04850000
opls_146-776    H    0.77787008    0.27929001    0.35308022    0.04910000
opls_146-777    H    0.69471997    0.22761010    0.43510009    0.04910000
opls_146-778    H    0.67675004    0.25250011    0.36610979    0.04910000
opls_144-779    H    0.73143000    0.21970999    0.47231017    0.02900000
opls_146-780    H    0.69050008    0.30371005    0.37146023    0.04910000
opls_146-781    H    0.54370000    0.30064999    0.27881983    0.04910000
opls_146-782    H    0.50046000    0.27540002    0.34806001    0.04910000
opls_146-783    H    0.53180995    0.22368006    0.43007988    0.04910000
opls_146-784    H    0.57495011    0.24892012    0.36175978    0.04910000
opls_144-785    H    0.48728009    0.21584001    0.46702986    0.02900000
opls_146-786    H    0.61193996    0.30151996    0.36934976    0.04910000
opls_146-787    H    0.69575005    0.45604000    0.28785008    0.04910000
opls_146-788    H    0.71992003    0.49848999    0.35973016    0.04910000
opls_146-789    H    0.76688011    0.46408005    0.45333009    0.04910000
opls_146-790    H    0.74275997    0.42177001    0.38227997    0.04910000
opls_144-791    H    0.77556010    0.50903014    0.48849009    0.02900000
opls_146-792    H    0.69307005    0.38498009    0.37736983    0.04910000
opls_702-793    H    0.66778007    0.33560007    0.12787979    0.04910000
opls_146-794    H    0.91457000    0.90890003    0.13659003    0.04910000
opls_146-795    H    0.88915999    0.86600010    0.06734012    0.04910000
opls_146-796    H    0.94107009    0.83448015    0.14708977    0.04910000
opls_146-797    H    0.96647008    0.87742013    0.21717987    0.04910000
opls_144-798    H    0.88242000    0.82262999    0.02621986    0.02900000
opls_146-799    H    0.96691007    0.94574010    0.12800984    0.04910000
opls_146-800    H    0.90775009    0.87613014    0.28350007    0.04910000
opls_146-801    H    0.88987007    0.83367004    0.35506015    0.04910000
opls_146-802    H    0.97088004    0.86962012    0.45154011    0.04910000
opls_146-803    H    0.98871996    0.91194007    0.38058010    0.04910000
opls_144-804    H    0.93491012    0.82444010    0.48659003    0.02900000
opls_146-805    H    0.97644005    0.94784000    0.37534022    0.04910000
opls_146-806    H    0.91440009    0.99049019    0.61988992    0.04920000
opls_146-807    H    0.87179997    0.97119007    0.54915007    0.04910000
opls_146-808    H    0.83830005    0.89090001    0.64683016    0.04910000
opls_146-809    H    0.88100012    0.91013016    0.71817008    0.04850000
opls_144-810    H    0.82773002    0.93433018    0.51316010    0.02900000
opls_146-811    H    0.95087002    0.98016015    0.62391018    0.04910000
opls_146-812    H    0.88097000    0.96781009    0.78250012    0.04850000
opls_146-813    H    0.83833002    0.94196012    0.85325021    0.04850000
opls_146-814    H    0.87303000    0.89360012    0.93783011    0.04910000
opls_146-815    H    0.91563005    0.91947011    0.86783985    0.04910000
opls_144-816    H    0.82786999    0.88425006    0.97484000    0.02900000
opls_146-817    H    0.95156004    0.97123011    0.87097024    0.04910000
opls_146-818    H    0.96775993    0.09194001    0.22016999    0.04910000
opls_146-819    H    0.94294006    0.11005995    0.14994009    0.04910000
opls_146-820    H    0.89242007    0.02751003    0.06446983    0.04910000
opls_146-821    H    0.91734010    0.00953004    0.13337977    0.04910000
opls_144-822    H    0.88449001    0.06425991    0.02768009    0.02900000
opls_146-823    H    0.96811999    0.02349992    0.12836978    0.04910000
opls_702-824    H    0.00166993    0.00106997    0.36994009    0.04910000
opls_146-825    H    0.90924990    0.03262995    0.28975013    0.04910000
opls_146-826    H    0.89199994    0.05798993    0.36056987    0.04910000
opls_146-827    H    0.97522997    0.10776995    0.44363012    0.04910000
opls_146-828    H    0.99237996    0.08229006    0.37386976    0.04910000
opls_144-829    H    0.93919999    0.11727007    0.47877989    0.02900000
opls_146-830    H    0.97797003    0.03087990    0.37563002    0.04910000
opls_146-831    H    0.09121996    0.12881001    0.72267011    0.04850000
opls_146-832    H    0.10862003    0.17181996    0.65303979    0.04910000
opls_146-833    H    0.02554007    0.13885006    0.56926014    0.04910000
opls_146-834    H    0.00822995    0.09598006    0.63802007    0.04910000
opls_144-835    H    0.06193001    0.18310996    0.53052019    0.02910000
opls_146-836    H    0.02523996    0.06036992    0.62943013    0.04910000
opls_702-837    H    0.00483000    0.00268999    0.86809021    0.04910000
opls_146-838    H    0.03237998    0.12765005    0.78770006    0.04910000
opls_146-839    H    0.05632999    0.16999003    0.85971994    0.04910000
opls_146-840    H    0.10232997    0.13510001    0.95587015    0.04910000
opls_146-841    H    0.07845989    0.09285993    0.88442989    0.04910000
opls_144-842    H    0.11093013    0.18003008    0.99077980    0.02900000
opls_146-843    H    0.03094009    0.05613008    0.87670011    0.04910000
opls_146-844    H    0.12233992    0.03164997    0.20864011    0.04910000
opls_146-845    H    0.16483990    0.05642997    0.13704983    0.04850000
opls_146-846    H    0.12887007    0.10167005    0.04199016    0.04910000
opls_146-847    H    0.08645011    0.07691007    0.11288978    0.04850000
opls_144-848    H    0.17440009    0.11136005    0.00764015    0.02900000
opls_146-849    H    0.05013995    0.02749001    0.11937996    0.04910000
opls_146-850    H    0.12330000    0.09009997    0.27052019    0.04910000
opls_146-851    H    0.16621993    0.10838998    0.34113000    0.04910000
opls_146-852    H    0.13247007    0.02686008    0.43327018    0.04910000
opls_146-853    H    0.08977990    0.00866998    0.36352004    0.04850000
opls_144-854    H    0.17650012    0.06342007    0.47094978    0.02900000
opls_146-855    H    0.05433998    0.02418991    0.36711022    0.04910000
opls_702-856    H    0.99643993    0.99893003    0.12789976    0.04910000
opls_146-857    H    0.04185005    0.92071015    0.71065024    0.04910000
opls_146-858    H    0.06403999    0.90070002    0.63796990    0.04910000
opls_146-859    H    0.10710011    0.97900019    0.53024012    0.04910000
opls_146-860    H    0.08475002    0.99899009    0.60237007    0.04910000
opls_144-861    H    0.11505007    0.94121006    0.49855000    0.02900000
opls_146-862    H    0.03441001    0.98515004    0.61642005    0.04910000
opls_146-863    H    0.10320996    0.98497006    0.74636014    0.04910000
opls_146-864    H    0.13134011    0.96851019    0.80847986    0.04910000
opls_146-865    H    0.06127006    0.92134008    0.94058984    0.04910000
opls_146-866    H    0.03297992    0.93775000    0.87866008    0.04910000
opls_702-867    H    0.13157010    0.93601006    0.88129999    0.09990000
opls_702-868    H    0.10031003    0.91181004    0.92871024    0.09990000
opls_702-869    H    0.12342012    0.94750006    0.95911013    0.09990000
opls_146-870    H    0.03528009    0.98033001    0.86459987    0.04910000
opls_702-871    H    0.00386005    0.00773994    0.62619015    0.04910000
