#======================================================================
# Crystal Data Generated By AuToFF
#----------------------------------------------------------------------

data_AuToFF_phase_1

_cell_length_a                         52.5863
_cell_length_b                         90.9089
_cell_length_c                         6.1525
_cell_angle_alpha                      90.00
_cell_angle_beta                       90.00
_cell_angle_gamma                      90.00
_symmetry_space_group_name_H-M_alt     'P 1'
_symmetry_space_group_IT_number        1

loop_
_space_group_symop_operation_xyz
   'x, y, z'

loop_
   _atom_site_label
   _atom_site_type_symbol
   _atom_site_fract_x
   _atom_site_fract_y
   _atom_site_fract_z
   _atom_site_charge
opls_145-0    C    0.64477003    0.61656999    0.74999919    -0.12670000
opls_145-1    C    0.14477003    0.11656999    0.74999919    -0.12670000
opls_145-2    C    0.35522997    0.38343001    0.24999919    -0.12530000
opls_145-3    C    0.85522997    0.88343001    0.24999919    -0.12530000
opls_145-4    C    0.35522997    0.61656999    0.74999919    -0.12670000
opls_145-5    C    0.85522997    0.11656999    0.74999919    -0.12670000
opls_145-6    C    0.64477003    0.38343001    0.24999919    -0.12550000
opls_145-7    C    0.14477003    0.88343001    0.24999919    -0.12550000
opls_145-8    C    0.62191008    0.63942001    0.74999919    -0.12850000
opls_145-9    C    0.12191008    0.13942001    0.74999919    -0.12850000
opls_145-10    C    0.37808992    0.36057999    0.24999919    -0.13000000
opls_145-11    C    0.87808992    0.86057999    0.24999919    -0.13000000
opls_145-12    C    0.37808992    0.63942001    0.74999919    -0.12770000
opls_145-13    C    0.87808992    0.13942001    0.74999919    -0.12770000
opls_145-14    C    0.62191008    0.36057999    0.24999919    -0.13040000
opls_145-15    C    0.12191008    0.86057999    0.24999919    -0.13040000
opls_145-16    C    0.66904992    0.19372999    0.74999919    0.18230000
opls_145-17    C    0.16904992    0.69372999    0.74999919    0.18230000
opls_145-18    C    0.33095008    0.80627001    0.24999919    0.18230000
opls_145-19    C    0.83095008    0.30627001    0.24999919    0.18230000
opls_145-20    C    0.33095008    0.19372999    0.74999919    0.18230000
opls_145-21    C    0.83095008    0.69372999    0.74999919    0.18230000
opls_145-22    C    0.66904992    0.80627001    0.24999919    0.18230000
opls_145-23    C    0.16904992    0.30627001    0.24999919    0.18230000
opls_145-24    C    0.83140000    0.13979005    0.74999919    0.19840000
opls_145-25    C    0.33140000    0.63979005    0.74999919    0.19840000
opls_145-26    C    0.16860000    0.86020995    0.24999919    0.19840000
opls_145-27    C    0.66860000    0.36020995    0.24999919    0.19840000
opls_145-28    C    0.16860000    0.13979005    0.74999919    0.19840000
opls_145-29    C    0.66860000    0.63979005    0.74999919    0.19840000
opls_145-30    C    0.83140000    0.86020995    0.24999919    0.19840000
opls_145-31    C    0.33140000    0.36020995    0.24999919    0.19840000
opls_700-32    C    0.95132991    0.09951996    0.74999919    0.06290000
opls_700-33    C    0.45132991    0.59951996    0.74999919    0.06290000
opls_700-34    C    0.04867009    0.90048004    0.24999919    0.06290000
opls_700-35    C    0.54867009    0.40048004    0.24999919    0.06290000
opls_700-36    C    0.04867009    0.09951996    0.74999919    0.06290000
opls_700-37    C    0.54867009    0.59951996    0.74999919    0.06290000
opls_700-38    C    0.95132991    0.90048004    0.24999919    0.06290000
opls_700-39    C    0.45132991    0.40048004    0.24999919    0.06290000
opls_700-40    C    0.97642009    0.09105995    0.74999919    0.06240000
opls_700-41    C    0.47642009    0.59105995    0.74999919    0.06240000
opls_700-42    C    0.02357991    0.90894005    0.24999919    0.06240000
opls_700-43    C    0.52357991    0.40894005    0.24999919    0.06240000
opls_700-44    C    0.02357991    0.09105995    0.74999919    0.06240000
opls_700-45    C    0.52357991    0.59105995    0.74999919    0.06240000
opls_700-46    C    0.97642009    0.90894005    0.24999919    0.06240000
opls_700-47    C    0.47642009    0.40894005    0.24999919    0.06240000
opls_700-48    C    0.62157007    0.20945001    0.74999919    0.06120000
opls_700-49    C    0.12157007    0.70945001    0.74999919    0.06120000
opls_700-50    C    0.37842993    0.79054999    0.24999919    0.06150000
opls_700-51    C    0.87842993    0.29054999    0.24999919    0.06150000
opls_700-52    C    0.37842993    0.20945001    0.74999919    0.06150000
opls_700-53    C    0.87842993    0.70945001    0.74999919    0.06150000
opls_700-54    C    0.62157007    0.79054999    0.24999919    0.06120000
opls_700-55    C    0.12157007    0.29054999    0.24999919    0.06120000
opls_700-56    C    0.59612998    0.61550002    0.74999919    0.06210000
opls_700-57    C    0.09612998    0.11550002    0.74999919    0.06210000
opls_700-58    C    0.40387002    0.38449998    0.24999919    0.06200000
opls_700-59    C    0.90387002    0.88449998    0.24999919    0.06200000
opls_700-60    C    0.40387002    0.61550002    0.74999919    0.06210000
opls_700-61    C    0.90387002    0.11550002    0.74999919    0.06210000
opls_700-62    C    0.59612998    0.38449998    0.24999919    0.06200000
opls_700-63    C    0.09612998    0.88449998    0.24999919    0.06200000
opls_145-64    C    0.52290007    0.25749998    0.74999919    -0.17840000
opls_145-65    C    0.02290007    0.75749998    0.74999919    -0.17840000
opls_145-66    C    0.47709993    0.74250002    0.24999919    -0.16450000
opls_145-67    C    0.97709993    0.24250002    0.24999919    -0.16450000
opls_145-68    C    0.47709993    0.25749998    0.74999919    -0.17840000
opls_145-69    C    0.97709993    0.75749998    0.74999919    -0.17840000
opls_145-70    C    0.52290007    0.74250002    0.24999919    -0.16450000
opls_145-71    C    0.02290007    0.24250002    0.24999919    -0.16450000
opls_145-72    C    0.54980993    0.21803003    0.74999919    -0.13140000
opls_145-73    C    0.04980993    0.71803003    0.74999919    -0.13140000
opls_145-74    C    0.45019007    0.78196997    0.24999919    -0.13140000
opls_145-75    C    0.95019007    0.28196997    0.24999919    -0.13140000
opls_145-76    C    0.45019007    0.21803003    0.74999919    -0.13140000
opls_145-77    C    0.95019007    0.71803003    0.74999919    -0.13140000
opls_145-78    C    0.54980993    0.78196997    0.24999919    -0.13180000
opls_145-79    C    0.04980993    0.28196997    0.24999919    -0.13180000
opls_145-80    C    0.64555997    0.18629001    0.74999919    -0.16950000
opls_145-81    C    0.14555997    0.68629001    0.74999919    -0.16950000
opls_145-82    C    0.35444003    0.81370999    0.24999919    -0.16950000
opls_145-83    C    0.85444003    0.31370999    0.24999919    -0.16950000
opls_145-84    C    0.35444003    0.18629001    0.74999919    -0.16950000
opls_145-85    C    0.85444003    0.68629001    0.74999919    -0.16950000
opls_145-86    C    0.64555997    0.81370999    0.24999919    -0.16950000
opls_145-87    C    0.14555997    0.31370999    0.24999919    -0.16950000
opls_234-88    C    0.71872008    0.19159004    0.74999919    0.41490000
opls_234-89    C    0.21872008    0.69159004    0.74999919    0.41490000
opls_234-90    C    0.28127992    0.80840996    0.24999919    0.41490000
opls_234-91    C    0.78127992    0.30840996    0.24999919    0.41490000
opls_234-92    C    0.28127992    0.19159004    0.74999919    0.41490000
opls_234-93    C    0.78127992    0.69159004    0.74999919    0.41490000
opls_234-94    C    0.71872008    0.80840996    0.24999919    0.41490000
opls_234-95    C    0.21872008    0.30840996    0.24999919    0.41490000
opls_700-96    C    0.73750996    0.17982002    0.74999919    -0.06770000
opls_700-97    C    0.23750996    0.67982002    0.74999919    -0.06770000
opls_700-98    C    0.26249004    0.82017998    0.24999919    -0.06770000
opls_700-99    C    0.76249004    0.32017998    0.24999919    -0.06770000
opls_700-100    C    0.26249004    0.17982002    0.74999919    -0.06770000
opls_700-101    C    0.76249004    0.67982002    0.74999919    -0.06770000
opls_700-102    C    0.73750996    0.82017998    0.24999919    -0.06770000
opls_700-103    C    0.23750996    0.32017998    0.24999919    -0.06770000
opls_145-104    C    0.73701991    0.15300999    0.74999919    -0.16790000
opls_145-105    C    0.23701991    0.65300999    0.74999919    -0.16790000
opls_145-106    C    0.26298998    0.84699001    0.24999919    -0.16790000
opls_145-107    C    0.76298998    0.34699001    0.24999919    -0.17260000
opls_145-108    C    0.26298998    0.15300999    0.74999919    -0.16790000
opls_145-109    C    0.76298998    0.65300999    0.74999919    -0.17260000
opls_145-110    C    0.73701991    0.84699001    0.24999919    -0.16790000
opls_145-111    C    0.23701991    0.34699001    0.24999919    -0.16790000
opls_700-112    C    0.76365004    0.15363996    0.74999919    -0.06120000
opls_700-113    C    0.26365004    0.65363996    0.74999919    -0.06120000
opls_700-114    C    0.23634996    0.84636004    0.24999919    -0.06160000
opls_700-115    C    0.73634007    0.34636004    0.24999919    -0.06160000
opls_700-116    C    0.23634996    0.15363996    0.74999919    -0.06120000
opls_700-117    C    0.73634007    0.65363996    0.74999919    -0.06120000
opls_700-118    C    0.76365004    0.84636004    0.24999919    -0.06160000
opls_700-119    C    0.26365004    0.34636004    0.24999919    -0.06160000
opls_234-120    C    0.78282005    0.14211997    0.74999919    0.43720000
opls_234-121    C    0.28282005    0.64211997    0.74999919    0.43720000
opls_234-122    C    0.21719003    0.85788003    0.24999919    0.43720000
opls_234-123    C    0.71719003    0.35788003    0.24999919    0.43740000
opls_234-124    C    0.21719003    0.14211997    0.74999919    0.43720000
opls_234-125    C    0.71719003    0.64211997    0.74999919    0.43740000
opls_234-126    C    0.78282005    0.85788003    0.24999919    0.43720000
opls_234-127    C    0.28282005    0.35788003    0.24999919    0.43720000
opls_145-128    C    0.83223007    0.12427001    0.74999919    -0.17090000
opls_145-129    C    0.33223007    0.62427001    0.74999919    -0.17090000
opls_145-130    C    0.16776993    0.87572999    0.24999919    -0.17090000
opls_145-131    C    0.66776993    0.37572999    0.24999919    -0.17090000
opls_145-132    C    0.16776993    0.12427001    0.74999919    -0.17090000
opls_145-133    C    0.66776993    0.62427001    0.74999919    -0.17090000
opls_145-134    C    0.83223007    0.87572999    0.24999919    -0.17090000
opls_145-135    C    0.33223007    0.37572999    0.24999919    -0.17090000
opls_145-136    C    0.92756992    0.09225004    0.74999919    -0.12670000
opls_145-137    C    0.42756992    0.59225004    0.74999919    -0.12670000
opls_145-138    C    0.07243008    0.90774996    0.24999919    -0.12670000
opls_145-139    C    0.57243008    0.40774996    0.24999919    -0.12670000
opls_145-140    C    0.07243008    0.09225004    0.74999919    -0.12670000
opls_145-141    C    0.57243008    0.59225004    0.74999919    -0.12670000
opls_145-142    C    0.92756992    0.90774996    0.24999919    -0.12670000
opls_145-143    C    0.42756992    0.40774996    0.24999919    -0.12670000
opls_145-144    C    0.59558003    0.23326000    0.74999919    -0.12020000
opls_145-145    C    0.09558992    0.73326000    0.74999919    -0.12020000
opls_145-146    C    0.40441997    0.76674000    0.24999919    -0.12020000
opls_145-147    C    0.90441008    0.26674000    0.24999919    -0.12020000
opls_145-148    C    0.40441997    0.23326000    0.74999919    -0.12020000
opls_145-149    C    0.90441008    0.73326000    0.74999919    -0.12020000
opls_145-150    C    0.59558003    0.76674000    0.24999919    -0.12020000
opls_145-151    C    0.09558992    0.26674000    0.24999919    -0.12020000
opls_145-152    C    0.64519999    0.21685996    0.74999919    -0.13000000
opls_145-153    C    0.14519999    0.71685996    0.74999919    -0.13000000
opls_145-154    C    0.35481009    0.78314004    0.24999919    -0.13000000
opls_145-155    C    0.85481009    0.28314004    0.24999919    -0.13000000
opls_145-156    C    0.35481009    0.21685996    0.74999919    -0.13000000
opls_145-157    C    0.85481009    0.71685996    0.74999919    -0.13000000
opls_145-158    C    0.64519999    0.78314004    0.24999919    -0.13000000
opls_145-159    C    0.14519999    0.28314004    0.24999919    -0.13000000
opls_145-160    C    0.59537998    0.59998999    0.74999919    -0.12020000
opls_145-161    C    0.09537998    0.09998999    0.74999919    -0.12020000
opls_145-162    C    0.40462002    0.40001001    0.24999919    -0.12020000
opls_145-163    C    0.90462002    0.90001001    0.24999919    -0.12020000
opls_145-164    C    0.40462002    0.59998999    0.74999919    -0.12020000
opls_145-165    C    0.90462002    0.09998999    0.74999919    -0.12020000
opls_145-166    C    0.59537998    0.40001001    0.24999919    -0.12020000
opls_145-167    C    0.09537998    0.90001001    0.24999919    -0.12020000
opls_145-168    C    0.57245994    0.62280998    0.74999919    -0.12380000
opls_145-169    C    0.07245994    0.12280998    0.74999919    -0.12380000
opls_145-170    C    0.42754006    0.37719002    0.24999919    -0.12380000
opls_145-171    C    0.92754006    0.87719002    0.24999919    -0.12380000
opls_145-172    C    0.42754006    0.62280998    0.74999919    -0.12380000
opls_145-173    C    0.92754006    0.12280998    0.74999919    -0.12380000
opls_145-174    C    0.57245994    0.37719002    0.24999919    -0.12380000
opls_145-175    C    0.07245994    0.87719002    0.24999919    -0.12380000
opls_234-176    C    0.47920998    0.38808004    0.74999919    0.43740000
opls_234-177    C    0.97920998    0.88808004    0.74999919    0.43740000
opls_234-178    C    0.52079002    0.61191996    0.24999919    0.43740000
opls_234-179    C    0.02079002    0.11191996    0.24999919    0.43740000
opls_234-180    C    0.52079002    0.38808004    0.74999919    0.43740000
opls_234-181    C    0.02079002    0.88808004    0.74999919    0.43740000
opls_234-182    C    0.47920998    0.61191996    0.24999919    0.43740000
opls_234-183    C    0.97920998    0.11191996    0.24999919    0.43740000
opls_700-184    C    0.48691009    0.40343003    0.74999919    -0.06410000
opls_700-185    C    0.98691009    0.90343003    0.74999919    -0.06410000
opls_700-186    C    0.51308991    0.59656997    0.24999919    -0.06410000
opls_700-187    C    0.01308991    0.09656997    0.24999919    -0.06410000
opls_700-188    C    0.51308991    0.40343003    0.74999919    -0.06410000
opls_700-189    C    0.01308991    0.90343003    0.74999919    -0.06410000
opls_700-190    C    0.48691009    0.59656997    0.24999919    -0.06410000
opls_700-191    C    0.98691009    0.09656997    0.24999919    -0.06410000
opls_145-192    C    0.52732004    0.41649002    0.74999919    -0.17080000
opls_145-193    C    0.02732004    0.91649002    0.74999919    -0.17080000
opls_145-194    C    0.47267996    0.58350998    0.24999919    -0.17080000
opls_145-195    C    0.97267996    0.08350998    0.24999919    -0.17080000
opls_145-196    C    0.47267996    0.41649002    0.74999919    -0.17080000
opls_145-197    C    0.97267996    0.91649002    0.74999919    -0.17080000
opls_145-198    C    0.52732004    0.58350998    0.24999919    -0.17080000
opls_145-199    C    0.02732004    0.08350998    0.24999919    -0.17080000
opls_700-200    C    0.51309999    0.42953000    0.74999919    -0.06140000
opls_700-201    C    0.01309999    0.92953000    0.74999919    -0.06140000
opls_700-202    C    0.48690001    0.57047000    0.24999919    -0.06140000
opls_700-203    C    0.98690001    0.07047000    0.24999919    -0.06140000
opls_700-204    C    0.48690001    0.42953000    0.74999919    -0.06140000
opls_700-205    C    0.98690001    0.92953000    0.74999919    -0.06140000
opls_700-206    C    0.51309999    0.57047000    0.24999919    -0.06140000
opls_700-207    C    0.01309999    0.07047000    0.24999919    -0.06140000
opls_234-208    C    0.52080009    0.44486997    0.74999919    0.43740000
opls_234-209    C    0.02080009    0.94486997    0.74999919    0.43740000
opls_234-210    C    0.47919991    0.55513003    0.24999919    0.43740000
opls_234-211    C    0.97919991    0.05513003    0.24999919    0.43740000
opls_234-212    C    0.47919991    0.44486997    0.74999919    0.43740000
opls_234-213    C    0.97919991    0.94486997    0.74999919    0.43740000
opls_234-214    C    0.52080009    0.55513003    0.24999919    0.43740000
opls_234-215    C    0.02080009    0.05513003    0.24999919    0.43740000
opls_145-216    C    0.52283009    0.49390995    0.74999919    -0.12670000
opls_145-217    C    0.02283009    0.99390995    0.74999919    -0.12670000
opls_145-218    C    0.47716991    0.50609005    0.24999919    -0.12670000
opls_145-219    C    0.97716991    0.00609005    0.24999919    -0.12670000
opls_145-220    C    0.47716991    0.49390995    0.74999919    -0.12670000
opls_145-221    C    0.97716991    0.99390995    0.74999919    -0.12670000
opls_145-222    C    0.52283009    0.50609005    0.24999919    -0.12670000
opls_145-223    C    0.02283009    0.00609005    0.24999919    -0.12670000
opls_145-224    C    0.52282001    0.54233997    0.74999919    -0.13040000
opls_145-225    C    0.02282001    0.04233997    0.74999919    -0.13040000
opls_145-226    C    0.47717999    0.45766003    0.24999919    -0.13040000
opls_145-227    C    0.97717999    0.95766003    0.24999919    -0.13040000
opls_145-228    C    0.47717999    0.54233997    0.74999919    -0.13040000
opls_145-229    C    0.97717999    0.04233997    0.74999919    -0.13040000
opls_145-230    C    0.52282001    0.45766003    0.24999919    -0.13040000
opls_145-231    C    0.02282001    0.95766003    0.24999919    -0.13040000
opls_145-232    C    0.47719996    0.30604000    0.74999919    -0.12530000
opls_145-233    C    0.97719996    0.80604000    0.74999919    -0.12530000
opls_145-234    C    0.52280004    0.69396000    0.24999919    -0.12530000
opls_145-235    C    0.02280004    0.19396000    0.24999919    -0.12530000
opls_145-236    C    0.52280004    0.30604000    0.74999919    -0.12530000
opls_145-237    C    0.02280004    0.80604000    0.74999919    -0.12530000
opls_145-238    C    0.47719996    0.69396000    0.24999919    -0.12530000
opls_145-239    C    0.97719996    0.19396000    0.24999919    -0.12530000
opls_145-240    C    0.47716991    0.33909001    0.74999919    -0.12530000
opls_145-241    C    0.97716991    0.83909001    0.74999919    -0.12530000
opls_145-242    C    0.52283009    0.66090999    0.24999919    -0.12530000
opls_145-243    C    0.02283009    0.16090999    0.24999919    -0.12530000
opls_145-244    C    0.52283009    0.33909001    0.74999919    -0.12530000
opls_145-245    C    0.02283009    0.83909001    0.74999919    -0.12530000
opls_145-246    C    0.47716991    0.66090999    0.24999919    -0.12530000
opls_145-247    C    0.97716991    0.16090999    0.24999919    -0.12530000
opls_145-248    C    0.42746000    0.24091998    0.74999919    -0.13140000
opls_145-249    C    0.92746000    0.74091998    0.74999919    -0.13140000
opls_145-250    C    0.57254000    0.75908002    0.24999919    -0.13140000
opls_145-251    C    0.07254000    0.25908002    0.24999919    -0.13140000
opls_145-252    C    0.57254000    0.24091998    0.74999919    -0.13140000
opls_145-253    C    0.07254000    0.74091998    0.74999919    -0.13140000
opls_145-254    C    0.42746000    0.75908002    0.24999919    -0.13140000
opls_145-255    C    0.92746000    0.25908002    0.24999919    -0.13140000
opls_145-256    C    0.33175009    0.20920999    0.74999919    -0.17090000
opls_145-257    C    0.83175009    0.70920999    0.74999919    -0.17090000
opls_145-258    C    0.66824991    0.79079001    0.24999919    -0.17150000
opls_145-259    C    0.16824991    0.29079001    0.24999919    -0.17150000
opls_145-260    C    0.66824991    0.20920999    0.74999919    -0.17150000
opls_145-261    C    0.16824991    0.70920999    0.74999919    -0.17150000
opls_145-262    C    0.33175009    0.79079001    0.24999919    -0.17090000
opls_145-263    C    0.83175009    0.29079001    0.24999919    -0.17090000
opls_234-264    C    0.30262996    0.17004001    0.74999919    0.41450000
opls_234-265    C    0.80262996    0.67004001    0.74999919    0.41450000
opls_234-266    C    0.69737004    0.82995999    0.24999919    0.41450000
opls_234-267    C    0.19737004    0.32995999    0.24999919    0.41450000
opls_234-268    C    0.69737004    0.17004001    0.74999919    0.41450000
opls_234-269    C    0.19737004    0.67004001    0.74999919    0.41450000
opls_234-270    C    0.30262996    0.82995999    0.24999919    0.41450000
opls_234-271    C    0.80262996    0.32995999    0.24999919    0.41450000
opls_700-272    C    0.37888994    0.62389997    0.74999919    0.06170000
opls_700-273    C    0.87888994    0.12389997    0.74999919    0.06170000
opls_700-274    C    0.62111006    0.37611004    0.24999919    0.06170000
opls_700-275    C    0.12111006    0.87611004    0.24999919    0.06170000
opls_700-276    C    0.62111006    0.62389997    0.74999919    0.06170000
opls_700-277    C    0.12111006    0.12389997    0.74999919    0.06170000
opls_700-278    C    0.37888994    0.37611004    0.24999919    0.06170000
opls_700-279    C    0.87888994    0.87611004    0.24999919    0.06170000
opls_700-280    C    0.09648996    0.71775998    0.74999919    0.06210000
opls_700-281    C    0.59648996    0.21775998    0.74999919    0.06210000
opls_700-282    C    0.90351004    0.28224002    0.24999919    0.06210000
opls_700-283    C    0.40351004    0.78224002    0.24999919    0.06210000
opls_700-284    C    0.90351004    0.71775998    0.74999919    0.06210000
opls_700-285    C    0.40351004    0.21775998    0.74999919    0.06210000
opls_700-286    C    0.09648996    0.28224002    0.24999919    0.06210000
opls_700-287    C    0.59648996    0.78224002    0.24999919    0.06210000
opls_700-288    C    0.22331006    0.16676002    0.74999919    -0.06390000
opls_700-289    C    0.72331006    0.66676002    0.74999919    -0.06170000
opls_700-290    C    0.77668994    0.83324999    0.24999919    -0.06390000
opls_700-291    C    0.27668994    0.33324999    0.24999919    -0.06390000
opls_700-292    C    0.77668994    0.16676002    0.74999919    -0.06390000
opls_700-293    C    0.27668994    0.66676002    0.74999919    -0.06390000
opls_700-294    C    0.22331006    0.83324999    0.24999919    -0.06390000
opls_700-295    C    0.72331006    0.33324999    0.24999919    -0.06170000
opls_234-296    C    0.19643995    0.16295005    0.74999919    0.43720000
opls_234-297    C    0.69643995    0.66295005    0.74999919    0.43720000
opls_234-298    C    0.80356005    0.83704995    0.24999919    0.43720000
opls_234-299    C    0.30356005    0.33704995    0.24999919    0.43720000
opls_234-300    C    0.80356005    0.16295005    0.74999919    0.43720000
opls_234-301    C    0.30356005    0.66295005    0.74999919    0.43720000
opls_234-302    C    0.19643995    0.83704995    0.24999919    0.43720000
opls_234-303    C    0.69643995    0.33704995    0.24999919    0.43720000
opls_145-304    C    0.14492995    0.14712003    0.74999919    -0.16860000
opls_145-305    C    0.64492995    0.64712003    0.74999919    -0.16860000
opls_145-306    C    0.85507994    0.85287997    0.24999919    -0.16860000
opls_145-307    C    0.35507994    0.35287997    0.24999919    -0.16860000
opls_145-308    C    0.85507994    0.14712003    0.74999919    -0.16860000
opls_145-309    C    0.35507994    0.64712003    0.74999919    -0.16860000
opls_145-310    C    0.14492995    0.85287997    0.24999919    -0.16850000
opls_145-311    C    0.64492995    0.35287997    0.24999919    -0.16860000
opls_145-312    C    0.04949996    0.11508004    0.74999919    -0.13140000
opls_145-313    C    0.54949996    0.61508004    0.74999919    -0.13140000
opls_145-314    C    0.95050004    0.88491996    0.24999919    -0.13140000
opls_145-315    C    0.45050004    0.38491996    0.24999919    -0.13140000
opls_145-316    C    0.95050004    0.11508004    0.74999919    -0.13140000
opls_145-317    C    0.45050004    0.61508004    0.74999919    -0.13140000
opls_145-318    C    0.04949996    0.88491996    0.24999919    -0.13140000
opls_145-319    C    0.54949996    0.38491996    0.24999919    -0.13140000
opls_145-320    C    0.42711999    0.21037995    0.74999919    -0.12750000
opls_145-321    C    0.92711999    0.71037995    0.74999919    -0.12750000
opls_145-322    C    0.57289009    0.78962005    0.24999919    -0.12750000
opls_145-323    C    0.07289009    0.28962005    0.24999919    -0.12750000
opls_145-324    C    0.57289009    0.21037995    0.74999919    -0.12750000
opls_145-325    C    0.07289009    0.71037995    0.74999919    -0.12750000
opls_145-326    C    0.42711999    0.78962005    0.24999919    -0.12750000
opls_145-327    C    0.92711999    0.28962005    0.24999919    -0.12750000
opls_145-328    C    0.37752000    0.19391996    0.74999919    -0.13000000
opls_145-329    C    0.87752000    0.69391996    0.74999919    -0.13000000
opls_145-330    C    0.62248000    0.80608004    0.24999919    -0.13000000
opls_145-331    C    0.12248000    0.30608004    0.24999919    -0.13000000
opls_145-332    C    0.62248000    0.19391996    0.74999919    -0.13000000
opls_145-333    C    0.12248000    0.69391996    0.74999919    -0.13000000
opls_145-334    C    0.37752000    0.80608004    0.24999919    -0.13000000
opls_145-335    C    0.87752000    0.30608004    0.24999919    -0.13000000
opls_145-336    C    0.97709004    0.07553001    0.74999919    -0.17720000
opls_145-337    C    0.47709004    0.57553001    0.74999919    -0.17720000
opls_145-338    C    0.02290996    0.92446999    0.24999919    -0.17570000
opls_145-339    C    0.52290996    0.42446999    0.24999919    -0.17570000
opls_145-340    C    0.02290996    0.07553001    0.74999919    -0.17720000
opls_145-341    C    0.52290996    0.57553001    0.74999919    -0.17720000
opls_145-342    C    0.97709004    0.92446999    0.24999919    -0.17570000
opls_145-343    C    0.47709004    0.42446999    0.24999919    -0.17570000
opls_700-344    C    0.50000000    0.26560997    0.74999919    0.06250000
opls_700-345    C    0.00000000    0.76560997    0.74999919    0.06250000
opls_700-346    C    0.50000000    0.73440004    0.24999919    0.06250000
opls_700-347    C    0.00000000    0.23440004    0.24999919    0.06250000
opls_700-348    C    0.50000000    0.28241998    0.74999919    0.06260000
opls_700-349    C    0.00000000    0.78241998    0.74999919    0.06260000
opls_700-350    C    0.50000000    0.71758002    0.24999919    0.06270000
opls_700-351    C    0.00000000    0.21758002    0.24999919    0.06270000
opls_145-352    C    0.50000000    0.36262005    0.74999919    0.19630000
opls_145-353    C    0.00000000    0.86262005    0.74999919    0.19630000
opls_145-354    C    0.50000000    0.63737995    0.24999919    0.19630000
opls_145-355    C    0.00000000    0.13737995    0.24999919    0.19630000
opls_700-356    C    0.50000000    0.55058999    0.74999919    0.06240000
opls_700-357    C    0.00000000    0.05058999    0.74999919    0.06240000
opls_700-358    C    0.50000000    0.44941001    0.24999919    0.06270000
opls_700-359    C    0.00000000    0.94941001    0.24999919    0.06270000
opls_700-360    C    0.50000000    0.56742002    0.74999919    0.06240000
opls_700-361    C    0.00000000    0.06742002    0.74999919    0.06240000
opls_700-362    C    0.50000000    0.43258999    0.24999919    0.06240000
opls_700-363    C    0.00000000    0.93258999    0.24999919    0.06240000
opls_700-364    C    0.50000000    0.33091996    0.74999919    0.06170000
opls_700-365    C    0.00000000    0.83091996    0.74999919    0.06170000
opls_700-366    C    0.50000000    0.66908004    0.24999919    0.06170000
opls_700-367    C    0.00000000    0.16908004    0.24999919    0.06170000
opls_700-368    C    0.50000000    0.31421005    0.74999919    0.06200000
opls_700-369    C    0.00000000    0.81421005    0.74999919    0.06200000
opls_700-370    C    0.50000000    0.68578995    0.24999919    0.06200000
opls_700-371    C    0.00000000    0.18578995    0.24999919    0.06200000
opls_145-372    C    0.50000000    0.23453996    0.74999919    -0.17790000
opls_145-373    C    0.00000000    0.73453996    0.74999919    -0.17790000
opls_145-374    C    0.50000000    0.76546004    0.24999919    -0.17790000
opls_145-375    C    0.00000000    0.26546004    0.24999919    -0.17790000
opls_700-376    C    0.50000000    0.50209000    0.74999919    0.06190000
opls_700-377    C    0.00000000    0.00209000    0.74999919    0.06190000
opls_700-378    C    0.50000000    0.49791000    0.24999919    0.06190000
opls_700-379    C    0.00000000    0.99791000    0.24999919    0.06190000
opls_700-380    C    0.04881005    0.26642001    0.24999919    0.06270000
opls_700-381    C    0.54881005    0.76642001    0.24999919    0.06270000
opls_700-382    C    0.95118995    0.73357999    0.74999919    0.06270000
opls_700-383    C    0.45118995    0.23357999    0.74999919    0.06270000
opls_700-384    C    0.95118995    0.26642001    0.24999919    0.06270000
opls_700-385    C    0.45118995    0.76642001    0.24999919    0.06270000
opls_700-386    C    0.04881005    0.73357999    0.74999919    0.06270000
opls_700-387    C    0.54881005    0.23357999    0.74999919    0.06270000
opls_145-388    C    0.26418991    0.31961997    0.24999919    -0.16760000
opls_145-389    C    0.76418991    0.81961997    0.24999919    -0.16760000
opls_145-390    C    0.73581009    0.68038003    0.74999919    -0.17100000
opls_145-391    C    0.23581009    0.18038003    0.74999919    -0.17100000
opls_145-392    C    0.73581009    0.31961997    0.24999919    -0.16760000
opls_145-393    C    0.23581009    0.81961997    0.24999919    -0.16760000
opls_145-394    C    0.26418991    0.68038003    0.74999919    -0.17100000
opls_145-395    C    0.76418991    0.18038003    0.74999919    -0.17100000
opls_700-396    C    0.02360006    0.25802996    0.24999919    0.06240000
opls_700-397    C    0.52360006    0.75802996    0.24999919    0.06240000
opls_700-398    C    0.97639994    0.74197004    0.74999919    0.06240000
opls_700-399    C    0.47639994    0.24197004    0.74999919    0.06240000
opls_700-400    C    0.97639994    0.25802996    0.24999919    0.06240000
opls_700-401    C    0.47639994    0.75802996    0.24999919    0.06240000
opls_700-402    C    0.02360006    0.74197004    0.74999919    0.06240000
opls_700-403    C    0.52360006    0.24197004    0.74999919    0.06240000
opls_145-404    C    0.02282001    0.20933000    0.24999919    -0.13140000
opls_145-405    C    0.52282001    0.70933000    0.24999919    -0.13140000
opls_145-406    C    0.97717999    0.79067000    0.74999919    -0.13140000
opls_145-407    C    0.47717999    0.29067000    0.74999919    -0.13140000
opls_145-408    C    0.97717999    0.20933000    0.24999919    -0.13140000
opls_145-409    C    0.47717999    0.70933000    0.24999919    -0.13140000
opls_145-410    C    0.02282001    0.79067000    0.74999919    -0.13140000
opls_145-411    C    0.52282001    0.29067000    0.74999919    -0.13140000
opls_145-412    C    0.47719007    0.47303003    0.24999919    -0.12330000
opls_145-413    C    0.97719007    0.97303003    0.24999919    -0.12330000
opls_145-414    C    0.52280993    0.52696997    0.74999919    -0.12330000
opls_145-415    C    0.02280993    0.02696997    0.74999919    -0.12330000
opls_145-416    C    0.52280993    0.47303003    0.24999919    -0.12330000
opls_145-417    C    0.02280993    0.97303003    0.24999919    -0.12330000
opls_145-418    C    0.47719007    0.52696997    0.74999919    -0.12330000
opls_145-419    C    0.97719007    0.02696997    0.74999919    -0.12330000
opls_145-420    C    0.47716991    0.52145995    0.24999919    -0.17070000
opls_145-421    C    0.97716991    0.02145995    0.24999919    -0.17070000
opls_145-422    C    0.52283009    0.47854005    0.74999919    -0.17070000
opls_145-423    C    0.02283009    0.97854005    0.74999919    -0.17070000
opls_145-424    C    0.52283009    0.52145995    0.24999919    -0.17070000
opls_145-425    C    0.02283009    0.02145995    0.24999919    -0.17070000
opls_145-426    C    0.47716991    0.47854005    0.74999919    -0.17070000
opls_145-427    C    0.97716991    0.97854005    0.74999919    -0.17070000
opls_145-428    C    0.97717999    0.14555000    0.24999919    -0.16950000
opls_145-429    C    0.47717999    0.64555000    0.24999919    -0.16950000
opls_145-430    C    0.02282001    0.85445000    0.74999919    -0.16950000
opls_145-431    C    0.52282001    0.35445000    0.74999919    -0.16950000
opls_145-432    C    0.02282001    0.14555000    0.24999919    -0.16950000
opls_145-433    C    0.52282001    0.64555000    0.24999919    -0.16950000
opls_145-434    C    0.97717999    0.85445000    0.74999919    -0.16940000
opls_145-435    C    0.47717999    0.35445000    0.74999919    -0.16950000
opls_700-436    C    0.77559003    0.33338001    0.24999919    -0.07880000
opls_700-437    C    0.27559003    0.83338001    0.24999919    -0.07870000
opls_700-438    C    0.22440997    0.66661999    0.74999919    -0.07350000
opls_700-439    C    0.72440997    0.16661999    0.74999919    -0.07350000
opls_700-440    C    0.22440997    0.33338001    0.24999919    -0.07350000
opls_700-441    C    0.72440997    0.83338001    0.24999919    -0.07350000
opls_700-442    C    0.77559003    0.66661999    0.74999919    -0.07880000
opls_700-443    C    0.27559003    0.16661999    0.74999919    -0.07880000
opls_700-444    C    0.50000000    0.48119997    0.24999919    0.06210000
opls_700-445    C    0.00000000    0.98119997    0.24999919    0.06210000
opls_700-446    C    0.50000000    0.51880003    0.74999919    0.06210000
opls_700-447    C    0.00000000    0.01880003    0.74999919    0.06210000
opls_145-448    C    0.50000000    0.52962999    0.24999919    0.19840000
opls_145-449    C    0.00000000    0.02962999    0.24999919    0.19840000
opls_145-450    C    0.50000000    0.47037001    0.74999919    0.19840000
opls_145-451    C    0.00000000    0.97037001    0.74999919    0.19840000
opls_145-452    C    0.50000000    0.40154000    0.24999919    -0.13920000
opls_145-453    C    0.00000000    0.90154000    0.24999919    -0.13920000
opls_145-454    C    0.50000000    0.59846000    0.74999919    -0.13920000
opls_145-455    C    0.00000000    0.09846000    0.74999919    -0.13920000
opls_236-456    O    0.72416998    0.20459999    0.74999919    -0.38320000
opls_236-457    O    0.22416998    0.70459999    0.74999919    -0.38320000
opls_236-458    O    0.27583002    0.79540001    0.24999919    -0.38320000
opls_236-459    O    0.77583002    0.29540001    0.24999919    -0.38320000
opls_236-460    O    0.27583002    0.20459999    0.74999919    -0.38320000
opls_236-461    O    0.77583002    0.70459999    0.74999919    -0.38320000
opls_236-462    O    0.72416998    0.79540001    0.24999919    -0.38320000
opls_236-463    O    0.22416998    0.29540001    0.24999919    -0.38320000
opls_236-464    O    0.77760995    0.12907999    0.74999919    -0.38280000
opls_236-465    O    0.27760995    0.62907999    0.74999919    -0.38280000
opls_236-466    O    0.22239005    0.87092001    0.24999919    -0.38280000
opls_236-467    O    0.72239005    0.37092001    0.24999919    -0.38270000
opls_236-468    O    0.22239005    0.12907999    0.74999919    -0.38280000
opls_236-469    O    0.72239005    0.62907999    0.74999919    -0.38280000
opls_236-470    O    0.77760995    0.87092001    0.24999919    -0.38280000
opls_236-471    O    0.27760995    0.37092001    0.24999919    -0.38280000
opls_236-472    O    0.45708996    0.38417999    0.74999919    -0.37620000
opls_236-473    O    0.95708996    0.88417999    0.74999919    -0.37620000
opls_236-474    O    0.54291004    0.61582001    0.24999919    -0.37620000
opls_236-475    O    0.04291004    0.11582001    0.24999919    -0.37620000
opls_236-476    O    0.54291004    0.38417999    0.74999919    -0.37620000
opls_236-477    O    0.04291004    0.88417999    0.74999919    -0.37620000
opls_236-478    O    0.45708996    0.61582001    0.24999919    -0.37620000
opls_236-479    O    0.95708996    0.11582001    0.24999919    -0.37620000
opls_236-480    O    0.54291992    0.44878004    0.74999919    -0.38070000
opls_236-481    O    0.04291992    0.94878004    0.74999919    -0.38060000
opls_236-482    O    0.45708008    0.55122997    0.24999919    -0.37620000
opls_236-483    O    0.95708008    0.05122997    0.24999919    -0.37620000
opls_236-484    O    0.45708008    0.44878004    0.74999919    -0.38070000
opls_236-485    O    0.95708008    0.94878004    0.74999919    -0.38070000
opls_236-486    O    0.54291992    0.55122997    0.24999919    -0.37620000
opls_236-487    O    0.04291992    0.05122997    0.24999919    -0.37620000
opls_236-488    O    0.31927993    0.16075005    0.74999919    -0.38330000
opls_236-489    O    0.81927993    0.66075005    0.74999919    -0.38330000
opls_236-490    O    0.68072007    0.83925996    0.24999919    -0.38180000
opls_236-491    O    0.18072007    0.33925996    0.24999919    -0.38180000
opls_236-492    O    0.68072007    0.16075005    0.74999919    -0.38330000
opls_236-493    O    0.18072007    0.66075005    0.74999919    -0.38330000
opls_236-494    O    0.31927993    0.83925996    0.24999919    -0.38180000
opls_236-495    O    0.81927993    0.33925996    0.24999919    -0.38180000
opls_236-496    O    0.17953992    0.17208997    0.74999919    -0.38280000
opls_236-497    O    0.67953992    0.67208997    0.74999919    -0.38280000
opls_236-498    O    0.82046008    0.82791003    0.24999919    -0.38280000
opls_236-499    O    0.32046008    0.32791003    0.24999919    -0.38280000
opls_236-500    O    0.82046008    0.17208997    0.74999919    -0.38280000
opls_236-501    O    0.32046008    0.67208997    0.74999919    -0.38280000
opls_236-502    O    0.17953992    0.82791003    0.24999919    -0.38280000
opls_236-503    O    0.67953992    0.32791003    0.24999919    -0.38270000
opls_542-504    N    0.80685007    0.68575002    0.74999919    -0.22760000
opls_542-505    N    0.30685007    0.18575002    0.74999919    -0.22760000
opls_542-506    N    0.19314993    0.31424998    0.24999919    -0.22760000
opls_542-507    N    0.69314993    0.81424998    0.24999919    -0.22760000
opls_542-508    N    0.19314993    0.68575002    0.74999919    -0.22760000
opls_542-509    N    0.69314993    0.18575002    0.74999919    -0.22760000
opls_542-510    N    0.80685007    0.31424998    0.24999919    -0.22760000
opls_542-511    N    0.30685007    0.81424998    0.24999919    -0.22760000
opls_542-512    N    0.80719009    0.14787001    0.74999919    -0.19770000
opls_542-513    N    0.30719009    0.64787001    0.74999919    -0.19770000
opls_542-514    N    0.19281999    0.85212999    0.24999919    -0.19750000
opls_542-515    N    0.69281999    0.35212999    0.24999919    -0.19750000
opls_542-516    N    0.19281999    0.14787001    0.74999919    -0.19750000
opls_542-517    N    0.69281999    0.64787001    0.74999919    -0.19750000
opls_542-518    N    0.80719009    0.85212999    0.24999919    -0.19770000
opls_542-519    N    0.30719009    0.35212999    0.24999919    -0.19770000
opls_542-520    N    0.50000000    0.37875995    0.74999919    -0.18540000
opls_542-521    N    0.00000000    0.87875995    0.74999919    -0.18540000
opls_542-522    N    0.50000000    0.62124005    0.24999919    -0.18540000
opls_542-523    N    0.00000000    0.12124005    0.24999919    -0.18540000
opls_542-524    N    0.50000000    0.45420998    0.74999919    -0.19750000
opls_542-525    N    0.00000000    0.95420998    0.74999919    -0.19750000
opls_542-526    N    0.50000000    0.54579002    0.24999919    -0.19750000
opls_542-527    N    0.00000000    0.04579002    0.24999919    -0.19750000
opls_146-528    H    0.72681002    0.14267998    0.74999919    0.11970000
opls_146-529    H    0.22681002    0.64267998    0.74999919    0.11970000
opls_146-530    H    0.27318998    0.85732002    0.24999919    0.12050000
opls_146-531    H    0.77318998    0.35732002    0.24999919    0.12050000
opls_146-532    H    0.27318998    0.14267998    0.74999919    0.12050000
opls_146-533    H    0.77318998    0.64267998    0.74999919    0.12050000
opls_146-534    H    0.72681002    0.85732002    0.24999919    0.11970000
opls_146-535    H    0.22681002    0.35732002    0.24999919    0.11970000
opls_146-536    H    0.57431993    0.25270001    0.74999919    0.09380000
opls_146-537    H    0.07431993    0.75270001    0.74999919    0.09380000
opls_146-538    H    0.42568007    0.74729999    0.24999919    0.09380000
opls_146-539    H    0.92568007    0.24729999    0.24999919    0.09380000
opls_146-540    H    0.42568007    0.25270001    0.74999919    0.09380000
opls_146-541    H    0.92568007    0.75270001    0.74999919    0.09380000
opls_146-542    H    0.57431993    0.74729999    0.24999919    0.09380000
opls_146-543    H    0.07431993    0.24729999    0.24999919    0.09380000
opls_146-544    H    0.61246998    0.23993998    0.74999919    0.10740000
opls_146-545    H    0.11246998    0.73993998    0.74999919    0.12210000
opls_146-546    H    0.38753002    0.76006002    0.24999919    0.10740000
opls_146-547    H    0.88753002    0.26006002    0.24999919    0.12210000
opls_146-548    H    0.38753002    0.23993998    0.74999919    0.10740000
opls_146-549    H    0.88753002    0.73993998    0.74999919    0.12210000
opls_146-550    H    0.61246998    0.76006002    0.24999919    0.10740000
opls_146-551    H    0.11246998    0.26006002    0.24999919    0.12210000
opls_146-552    H    0.64666006    0.22866001    0.74999919    0.11610000
opls_146-553    H    0.14666006    0.72866001    0.74999919    0.11610000
opls_146-554    H    0.35335002    0.77133999    0.24999919    0.11610000
opls_146-555    H    0.85335002    0.27133999    0.24999919    0.11610000
opls_146-556    H    0.35335002    0.22866001    0.74999919    0.11610000
opls_146-557    H    0.85335002    0.72866001    0.74999919    0.11610000
opls_146-558    H    0.64666006    0.77133999    0.24999919    0.11610000
opls_146-559    H    0.14666006    0.27133999    0.24999919    0.11610000
opls_146-560    H    0.68521991    0.21579999    0.74999919    0.09380000
opls_146-561    H    0.18521991    0.71579999    0.74999919    0.09380000
opls_146-562    H    0.31478009    0.78420001    0.24999919    0.09380000
opls_146-563    H    0.81478009    0.28420001    0.24999919    0.09380000
opls_146-564    H    0.31478009    0.21579999    0.74999919    0.09380000
opls_146-565    H    0.81478009    0.71579999    0.74999919    0.09380000
opls_146-566    H    0.68521991    0.78420001    0.24999919    0.09380000
opls_146-567    H    0.18521991    0.28420001    0.24999919    0.09380000
opls_146-568    H    0.54789004    0.41648001    0.74999919    0.11970000
opls_146-569    H    0.04789004    0.91648001    0.74999919    0.11970000
opls_146-570    H    0.45210996    0.58351999    0.24999919    0.11970000
opls_146-571    H    0.95210996    0.08351999    0.24999919    0.11970000
opls_146-572    H    0.45210996    0.41648001    0.74999919    0.11970000
opls_146-573    H    0.95210996    0.91648001    0.74999919    0.11970000
opls_146-574    H    0.54789004    0.58351999    0.24999919    0.11970000
opls_146-575    H    0.04789004    0.08351999    0.24999919    0.11970000
opls_146-576    H    0.45863999    0.28568996    0.74999919    0.09380000
opls_146-577    H    0.95863999    0.78568996    0.74999919    0.09380000
opls_146-578    H    0.54136001    0.71431004    0.24999919    0.09380000
opls_146-579    H    0.04136001    0.21431004    0.24999919    0.09380000
opls_146-580    H    0.54136001    0.28568996    0.74999919    0.09380000
opls_146-581    H    0.04136001    0.78568996    0.74999919    0.09380000
opls_146-582    H    0.45863999    0.71431004    0.24999919    0.09380000
opls_146-583    H    0.95863999    0.21431004    0.24999919    0.09380000
opls_146-584    H    0.45877006    0.31118999    0.74999919    0.09720000
opls_146-585    H    0.95877006    0.81118999    0.74999919    0.09720000
opls_146-586    H    0.54122994    0.68881001    0.24999919    0.09720000
opls_146-587    H    0.04122994    0.18881001    0.24999919    0.09720000
opls_146-588    H    0.54122994    0.31118999    0.74999919    0.09720000
opls_146-589    H    0.04122994    0.81118999    0.74999919    0.09720000
opls_146-590    H    0.45877006    0.68881001    0.24999919    0.09720000
opls_146-591    H    0.95877006    0.18881001    0.24999919    0.09720000
opls_146-592    H    0.45874001    0.33395003    0.74999919    0.10740000
opls_146-593    H    0.95874001    0.83395003    0.74999919    0.10740000
opls_146-594    H    0.54125999    0.66604997    0.24999919    0.10740000
opls_146-595    H    0.04125999    0.16604997    0.24999919    0.10740000
opls_146-596    H    0.54125999    0.33395003    0.74999919    0.10740000
opls_146-597    H    0.04125999    0.83395003    0.74999919    0.10740000
opls_146-598    H    0.45874001    0.66604997    0.24999919    0.10740000
opls_146-599    H    0.95874001    0.16604997    0.24999919    0.10740000
opls_146-600    H    0.07426991    0.08048002    0.74999919    0.09610000
opls_146-601    H    0.57426991    0.58048002    0.74999919    0.09610000
opls_146-602    H    0.92573009    0.91951998    0.24999919    0.09610000
opls_146-603    H    0.42573009    0.41951998    0.24999919    0.09610000
opls_146-604    H    0.92573009    0.08048002    0.74999919    0.09610000
opls_146-605    H    0.42573009    0.58048002    0.74999919    0.09610000
opls_146-606    H    0.07426991    0.91951998    0.24999919    0.09610000
opls_146-607    H    0.57426991    0.41951998    0.24999919    0.09610000
opls_146-608    H    0.22551995    0.19069002    0.74999919    0.11640000
opls_146-609    H    0.72551995    0.69069002    0.74999919    0.11640000
opls_146-610    H    0.77448005    0.80930998    0.24999919    0.11640000
opls_146-611    H    0.27448005    0.30930998    0.24999919    0.11640000
opls_146-612    H    0.77448005    0.19069002    0.74999919    0.11640000
opls_146-613    H    0.27448005    0.69069002    0.74999919    0.11640000
opls_146-614    H    0.22551995    0.80930998    0.24999919    0.11640000
opls_146-615    H    0.72551995    0.30930998    0.24999919    0.11640000
opls_146-616    H    0.46689993    0.21123003    0.74999919    0.09610000
opls_146-617    H    0.96689993    0.71123003    0.74999919    0.09610000
opls_146-618    H    0.53310007    0.78877998    0.24999919    0.09380000
opls_146-619    H    0.03310007    0.28877998    0.24999919    0.09380000
opls_146-620    H    0.53310007    0.21123003    0.74999919    0.09610000
opls_146-621    H    0.03310007    0.71123003    0.74999919    0.09610000
opls_146-622    H    0.46689993    0.78877998    0.24999919    0.09380000
opls_146-623    H    0.96689993    0.28877998    0.24999919    0.09380000
opls_146-624    H    0.42855002    0.19858001    0.74999919    0.11610000
opls_146-625    H    0.92855002    0.69858001    0.74999919    0.11610000
opls_146-626    H    0.57144998    0.80141999    0.24999919    0.11610000
opls_146-627    H    0.07144998    0.30141999    0.24999919    0.11610000
opls_146-628    H    0.57144998    0.19858001    0.74999919    0.11610000
opls_146-629    H    0.07144998    0.69858001    0.74999919    0.11610000
opls_146-630    H    0.42855002    0.80141999    0.24999919    0.11610000
opls_146-631    H    0.92855002    0.30141999    0.24999919    0.11610000
opls_146-632    H    0.39438998    0.18721995    0.74999919    0.10980000
opls_146-633    H    0.89438998    0.68721995    0.74999919    0.10980000
opls_146-634    H    0.60561002    0.81278005    0.24999919    0.10980000
opls_146-635    H    0.10561002    0.31278005    0.24999919    0.10980000
opls_146-636    H    0.60561002    0.18721995    0.74999919    0.10980000
opls_146-637    H    0.10561002    0.68721995    0.74999919    0.10980000
opls_146-638    H    0.39438998    0.81278005    0.24999919    0.10980000
opls_146-639    H    0.89438998    0.31278005    0.24999919    0.10980000
opls_146-640    H    0.35568009    0.17448996    0.74999919    0.09500000
opls_146-641    H    0.85568009    0.67448996    0.74999919    0.09500000
opls_146-642    H    0.64431991    0.82551004    0.24999919    0.09500000
opls_146-643    H    0.14431991    0.32551004    0.24999919    0.09500000
opls_146-644    H    0.64431991    0.17448996    0.74999919    0.09500000
opls_146-645    H    0.14431991    0.67448996    0.74999919    0.09500000
opls_146-646    H    0.35568009    0.82551004    0.24999919    0.09500000
opls_146-647    H    0.85568009    0.32551004    0.24999919    0.09500000
opls_146-648    H    0.54033009    0.26332999    0.74999919    0.24480000
opls_146-649    H    0.04033009    0.76332999    0.74999919    0.24480000
opls_146-650    H    0.45966991    0.73667001    0.24999919    0.24480000
opls_146-651    H    0.95966991    0.23667001    0.24999919    0.24480000
opls_146-652    H    0.45966991    0.26332999    0.74999919    0.24480000
opls_146-653    H    0.95966991    0.76332999    0.74999919    0.24480000
opls_146-654    H    0.54033009    0.73667001    0.24999919    0.24480000
opls_146-655    H    0.04033009    0.23667001    0.24999919    0.24480000
opls_146-656    H    0.50000000    0.61010000    0.74999919    0.24360000
opls_146-657    H    0.00000000    0.11010000    0.74999919    0.24360000
opls_146-658    H    0.50000000    0.38990000    0.24999919    0.24360000
opls_146-659    H    0.00000000    0.88990000    0.24999919    0.24360000
opls_146-660    H    0.50000000    0.22288005    0.74999919    0.24480000
opls_146-661    H    0.00000000    0.72288005    0.74999919    0.24480000
opls_146-662    H    0.50000000    0.77711995    0.24999919    0.24480000
opls_146-663    H    0.00000000    0.27711995    0.24999919    0.24480000
opls_146-664    H    0.95964006    0.93030000    0.24999919    0.24480000
opls_146-665    H    0.45964006    0.43030000    0.24999919    0.24480000
opls_146-666    H    0.04035994    0.06970000    0.74999919    0.24480000
opls_146-667    H    0.54035994    0.56970000    0.74999919    0.24480000
opls_146-668    H    0.04035994    0.93030000    0.24999919    0.24480000
opls_146-669    H    0.54035994    0.43030000    0.24999919    0.24480000
opls_146-670    H    0.95964006    0.06970000    0.74999919    0.24480000
opls_146-671    H    0.45964006    0.56970000    0.74999919    0.24480000
opls_146-672    H    0.35669994    0.34110995    0.24999919    0.09610000
opls_146-673    H    0.85669994    0.84110995    0.24999919    0.09610000
opls_146-674    H    0.64330006    0.65889005    0.74999919    0.09610000
opls_146-675    H    0.14330006    0.15889005    0.74999919    0.09610000
opls_146-676    H    0.64330006    0.34110995    0.24999919    0.09610000
opls_146-677    H    0.14330006    0.84110995    0.24999919    0.09610000
opls_146-678    H    0.35669994    0.65889005    0.74999919    0.09610000
opls_146-679    H    0.85669994    0.15889005    0.74999919    0.09610000
opls_146-680    H    0.31543006    0.38242999    0.24999919    0.10640000
opls_146-681    H    0.81543006    0.88242999    0.24999919    0.10640000
opls_146-682    H    0.68456994    0.61757001    0.74999919    0.10640000
opls_146-683    H    0.18456994    0.11757001    0.74999919    0.10640000
opls_146-684    H    0.68456994    0.38242999    0.24999919    0.10640000
opls_146-685    H    0.18456994    0.88242999    0.24999919    0.10640000
opls_146-686    H    0.31543006    0.61757001    0.74999919    0.10640000
opls_146-687    H    0.81543006    0.11757001    0.74999919    0.10640000
opls_146-688    H    0.04125999    0.14048999    0.24999919    0.10640000
opls_146-689    H    0.54125999    0.64048999    0.24999919    0.10640000
opls_146-690    H    0.95874001    0.85951001    0.74999919    0.10640000
opls_146-691    H    0.45874001    0.35951001    0.74999919    0.10640000
opls_146-692    H    0.95874001    0.14048999    0.24999919    0.10640000
opls_146-693    H    0.45874001    0.64048999    0.24999919    0.10640000
opls_146-694    H    0.04125999    0.85951001    0.74999919    0.10640000
opls_146-695    H    0.54125999    0.35951001    0.74999919    0.10640000
opls_146-696    H    0.53274997    0.37813998    0.24999919    0.22680000
opls_146-697    H    0.03274997    0.87813998    0.24999919    0.22680000
opls_146-698    H    0.46725003    0.62186002    0.74999919    0.22680000
opls_146-699    H    0.96725003    0.12186002    0.74999919    0.22680000
opls_146-700    H    0.46725003    0.37813998    0.24999919    0.22680000
opls_146-701    H    0.96725003    0.87813998    0.24999919    0.22680000
opls_146-702    H    0.53274997    0.62186002    0.74999919    0.22680000
opls_146-703    H    0.03274997    0.12186002    0.74999919    0.22680000
opls_146-704    H    0.54124002    0.50093995    0.24999919    0.11610000
opls_146-705    H    0.04124002    0.00093995    0.24999919    0.11610000
opls_146-706    H    0.45875998    0.49906005    0.74999919    0.11610000
opls_146-707    H    0.95875998    0.99906005    0.74999919    0.11610000
opls_146-708    H    0.45875998    0.50093995    0.24999919    0.11610000
opls_146-709    H    0.95875998    0.00093995    0.24999919    0.11610000
opls_146-710    H    0.54124002    0.49906005    0.74999919    0.11610000
opls_146-711    H    0.04124002    0.99906005    0.74999919    0.11610000
opls_146-712    H    0.54124991    0.52651996    0.24999919    0.10640000
opls_146-713    H    0.04124991    0.02651996    0.24999919    0.10640000
opls_146-714    H    0.45875009    0.47348004    0.74999919    0.10640000
opls_146-715    H    0.95875009    0.97348004    0.74999919    0.10640000
opls_146-716    H    0.45875009    0.52651996    0.24999919    0.10640000
opls_146-717    H    0.95875009    0.02651996    0.24999919    0.10640000
opls_146-718    H    0.54124991    0.47348004    0.74999919    0.10640000
opls_146-719    H    0.04124991    0.97348004    0.74999919    0.10640000
opls_146-720    H    0.54122005    0.47818002    0.24999919    0.11610000
opls_146-721    H    0.04122005    0.97818002    0.24999919    0.11610000
opls_146-722    H    0.45877995    0.52181998    0.74999919    0.11610000
opls_146-723    H    0.95877995    0.02181998    0.74999919    0.11610000
opls_146-724    H    0.45877995    0.47818002    0.24999919    0.11610000
opls_146-725    H    0.95877995    0.97818002    0.24999919    0.11610000
opls_146-726    H    0.54122005    0.52181998    0.74999919    0.11610000
opls_146-727    H    0.04122005    0.02181998    0.74999919    0.11610000
opls_146-728    H    0.04134004    0.95266998    0.24999919    0.09610000
opls_146-729    H    0.54134004    0.45266998    0.24999919    0.09610000
opls_146-730    H    0.95865996    0.04733002    0.74999919    0.09610000
opls_146-731    H    0.45865996    0.54733002    0.74999919    0.09610000
opls_146-732    H    0.95865996    0.95266998    0.24999919    0.09610000
opls_146-733    H    0.45865996    0.45266998    0.24999919    0.09610000
opls_146-734    H    0.04134004    0.04733002    0.74999919    0.09610000
opls_146-735    H    0.54134004    0.54733002    0.74999919    0.09610000
opls_146-736    H    0.64632994    0.39522995    0.24999919    0.09130000
opls_146-737    H    0.14632994    0.89522995    0.24999919    0.09130000
opls_146-738    H    0.35367995    0.60477005    0.74999919    0.09130000
opls_146-739    H    0.85367995    0.10477005    0.74999919    0.09130000
opls_146-740    H    0.35367995    0.39522995    0.24999919    0.09130000
opls_146-741    H    0.85367995    0.89522995    0.24999919    0.09130000
opls_146-742    H    0.64632994    0.60477005    0.74999919    0.09130000
opls_146-743    H    0.14632994    0.10477005    0.74999919    0.09130000
opls_146-744    H    0.07088995    0.86538997    0.24999919    0.10740000
opls_146-745    H    0.57088995    0.36538997    0.24999919    0.10740000
opls_146-746    H    0.92911005    0.13461003    0.74999919    0.10740000
opls_146-747    H    0.42911005    0.63461003    0.74999919    0.10740000
opls_146-748    H    0.92911005    0.86538997    0.24999919    0.10740000
opls_146-749    H    0.42911005    0.36538997    0.24999919    0.10740000
opls_146-750    H    0.07088995    0.13461003    0.74999919    0.10740000
opls_146-751    H    0.57088995    0.63461003    0.74999919    0.10740000
opls_146-752    H    0.39503007    0.35394004    0.24999919    0.10980000
opls_146-753    H    0.89503007    0.85394004    0.24999919    0.10980000
opls_146-754    H    0.60496993    0.64605996    0.74999919    0.10980000
opls_146-755    H    0.10496993    0.14605996    0.74999919    0.10980000
opls_146-756    H    0.60496993    0.35394004    0.24999919    0.10980000
opls_146-757    H    0.10496993    0.85394004    0.24999919    0.10980000
opls_146-758    H    0.39503007    0.64605996    0.74999919    0.10980000
opls_146-759    H    0.89503007    0.14605996    0.74999919    0.10980000
opls_146-760    H    0.61231994    0.40664005    0.24999919    0.12210000
opls_146-761    H    0.11231994    0.90664005    0.24999919    0.12210000
opls_146-762    H    0.38768006    0.59335995    0.74999919    0.12210000
opls_146-763    H    0.88768006    0.09335995    0.74999919    0.12210000
opls_146-764    H    0.38768006    0.40664005    0.24999919    0.12210000
opls_146-765    H    0.88768006    0.90664005    0.24999919    0.12210000
opls_146-766    H    0.61231994    0.59335995    0.74999919    0.12210000
opls_146-767    H    0.11231994    0.09335995    0.74999919    0.12210000
