#======================================================================
# Crystal Data Generated By AuToFF
#----------------------------------------------------------------------

data_AuToFF_phase_1

_cell_length_a                         35.1800
_cell_length_b                         35.1800
_cell_length_c                         35.1800
_cell_angle_alpha                      90.00
_cell_angle_beta                       90.00
_cell_angle_gamma                      90.00
_symmetry_space_group_name_H-M_alt     'P 1'
_symmetry_space_group_IT_number        1

loop_
_space_group_symop_operation_xyz
   'x, y, z'

loop_
   _atom_site_label
   _atom_site_type_symbol
   _atom_site_fract_x
   _atom_site_fract_y
   _atom_site_fract_z
   _atom_site_charge
opls_521-0    C    0.27276009    0.71146987    0.81771006    0.13760000
opls_142-1    C    0.27246987    0.58794002    0.70999005    0.07190000
opls_521-2    C    0.27377004    0.67771006    0.79172996    0.13760000
opls_142-3    C    0.18833002    0.88501990    0.73916998    0.07200000
opls_145-4    C    0.43190989    0.64656993    0.74850000    0.19660000
opls_145-5    C    0.46016003    0.63887010    0.72118988    -0.16760000
opls_145-6    C    0.47998010    0.60428994    0.72218988    -0.12650000
opls_700-7    C    0.47183997    0.57728994    0.75046987    0.06360000
opls_145-8    C    0.44490989    0.58603013    0.77856993    -0.11580000
opls_145-9    C    0.42500995    0.62020011    0.77734991    -0.15760000
opls_700-10    C    0.48749005    0.53822996    0.74873991    0.03120000
opls_145-11    C    0.46140989    0.50800995    0.74810006    -0.17420000
opls_700-12    C    0.47317993    0.46987010    0.74789994    0.03180000
opls_700-13    C    0.55681012    0.55983997    0.74844002    0.06710000
opls_145-14    C    0.58746987    0.55709011    0.72296987    -0.11460000
opls_145-15    C    0.61916998    0.58050995    0.72699005    -0.16500000
opls_145-16    C    0.62067993    0.60745992    0.75638005    0.19570000
opls_145-17    C    0.58911001    0.61216003    0.78018988    -0.16170000
opls_145-18    C    0.55756993    0.58810006    0.77668988    -0.12710000
opls_521-19    C    0.17820011    0.73653013    0.77875014    -0.04840000
opls_700-20    C    0.13849005    0.73367993    0.77744997    0.00780000
opls_523-21    C    0.12090989    0.72722996    0.74223991    -0.11880000
opls_522-22    C    0.14264014    0.72368988    0.70917993    -0.16370000
opls_521-23    C    0.27215009    0.73455998    0.65632007    0.03190000
opls_700-24    C    0.26154008    0.72657987    0.61871006    0.00680000
opls_523-25    C    0.22348010    0.71746987    0.61114014    -0.12400000
opls_522-26    C    0.19659011    0.71753013    0.64050000    -0.16350000
opls_521-27    C    0.72723991    0.28853013    0.81771006    0.13770000
opls_142-28    C    0.72753013    0.41205998    0.70999005    0.07210000
opls_521-29    C    0.72622996    0.32228994    0.79172996    0.13760000
opls_142-30    C    0.81166998    0.11498010    0.73916998    0.07200000
opls_145-31    C    0.56809011    0.35343007    0.74850000    0.19660000
opls_145-32    C    0.53983997    0.36112990    0.72118988    -0.16770000
opls_145-33    C    0.52001990    0.39571006    0.72218988    -0.12650000
opls_700-34    C    0.52816003    0.42271006    0.75046987    0.06360000
opls_145-35    C    0.55509011    0.41396987    0.77856993    -0.11580000
opls_145-36    C    0.57499005    0.37979989    0.77734991    -0.15760000
opls_700-37    C    0.51250995    0.46177004    0.74873991    0.03120000
opls_145-38    C    0.53859011    0.49199005    0.74810006    -0.17420000
opls_700-39    C    0.52682007    0.53012990    0.74789994    0.03180000
opls_700-40    C    0.44318988    0.44016003    0.74844002    0.06710000
opls_145-41    C    0.41253013    0.44290989    0.72296987    -0.11460000
opls_145-42    C    0.38083002    0.41949005    0.72699005    -0.16510000
opls_145-43    C    0.37932007    0.39254008    0.75638005    0.19580000
opls_145-44    C    0.41088999    0.38783997    0.78018988    -0.16170000
opls_145-45    C    0.44243007    0.41189994    0.77668988    -0.12710000
opls_521-46    C    0.82179989    0.26346987    0.77875014    -0.04840000
opls_700-47    C    0.86150995    0.26632007    0.77744997    0.00780000
opls_523-48    C    0.87909011    0.27277004    0.74223991    -0.11880000
opls_522-49    C    0.85735986    0.27631012    0.70917993    -0.16370000
opls_521-50    C    0.72784991    0.26544002    0.65632007    0.03190000
opls_700-51    C    0.73845992    0.27342013    0.61871006    0.00680000
opls_523-52    C    0.77651990    0.28253013    0.61114014    -0.12400000
opls_522-53    C    0.80340989    0.28246987    0.64050000    -0.16370000
opls_521-54    C    0.72723991    0.71146987    0.18228994    0.13770000
opls_142-55    C    0.72753013    0.58794002    0.29000995    0.07190000
opls_521-56    C    0.72622996    0.67771006    0.20827004    0.13760000
opls_142-57    C    0.81166998    0.88501990    0.26083002    0.07200000
opls_145-58    C    0.56809011    0.64656993    0.25150000    0.19660000
opls_145-59    C    0.53983997    0.63887010    0.27881012    -0.16770000
opls_145-60    C    0.52001990    0.60428994    0.27781012    -0.12650000
opls_700-61    C    0.52816003    0.57728994    0.24953013    0.06360000
opls_145-62    C    0.55509011    0.58603013    0.22143007    -0.11580000
opls_145-63    C    0.57499005    0.62020011    0.22265009    -0.15760000
opls_700-64    C    0.51250995    0.53822996    0.25126009    0.03120000
opls_145-65    C    0.53859011    0.50800995    0.25189994    -0.17420000
opls_700-66    C    0.52682007    0.46987010    0.25210006    0.03180000
opls_700-67    C    0.44318988    0.55983997    0.25155998    0.06710000
opls_145-68    C    0.41253013    0.55709011    0.27703013    -0.11460000
opls_145-69    C    0.38083002    0.58050995    0.27300995    -0.16510000
opls_145-70    C    0.37932007    0.60745992    0.24361995    0.19570000
opls_145-71    C    0.41088999    0.61216003    0.21981012    -0.16170000
opls_145-72    C    0.44243007    0.58810006    0.22331012    -0.12710000
opls_521-73    C    0.82179989    0.73653013    0.22124986    -0.04840000
opls_700-74    C    0.86150995    0.73367993    0.22255003    0.00780000
opls_523-75    C    0.87909011    0.72722996    0.25776009    -0.11870000
opls_522-76    C    0.85735986    0.72368988    0.29082007    -0.16370000
opls_521-77    C    0.72784991    0.73455998    0.34367993    0.03190000
opls_700-78    C    0.73845992    0.72657987    0.38128994    0.00680000
opls_523-79    C    0.77651990    0.71746987    0.38885986    -0.12400000
opls_522-80    C    0.80340989    0.71753013    0.35950000    -0.16370000
opls_521-81    C    0.27276009    0.28853013    0.18228994    0.13760000
opls_142-82    C    0.27246987    0.41205998    0.29000995    0.07190000
opls_521-83    C    0.27377004    0.32228994    0.20827004    0.13760000
opls_142-84    C    0.18833002    0.11498010    0.26083002    0.07210000
opls_145-85    C    0.43190989    0.35343007    0.25150000    0.19660000
opls_145-86    C    0.46016003    0.36112990    0.27881012    -0.16770000
opls_145-87    C    0.47998010    0.39571006    0.27781012    -0.12650000
opls_700-88    C    0.47183997    0.42271006    0.24953013    0.06360000
opls_145-89    C    0.44490989    0.41396987    0.22143007    -0.11570000
opls_145-90    C    0.42500995    0.37979989    0.22265009    -0.15760000
opls_700-91    C    0.48749005    0.46177004    0.25126009    0.03120000
opls_145-92    C    0.46140989    0.49199005    0.25189994    -0.17420000
opls_700-93    C    0.47317993    0.53012990    0.25210006    0.03180000
opls_700-94    C    0.55681012    0.44016003    0.25155998    0.06710000
opls_145-95    C    0.58746987    0.44290989    0.27703013    -0.11460000
opls_145-96    C    0.61916998    0.41949005    0.27300995    -0.16500000
opls_145-97    C    0.62067993    0.39254008    0.24361995    0.19570000
opls_145-98    C    0.58911001    0.38783997    0.21981012    -0.16160000
opls_145-99    C    0.55756993    0.41189994    0.22331012    -0.12710000
opls_521-100    C    0.17820011    0.26346987    0.22124986    -0.04840000
opls_700-101    C    0.13849005    0.26632007    0.22255003    0.00780000
opls_523-102    C    0.12090989    0.27277004    0.25776009    -0.11880000
opls_522-103    C    0.14264014    0.27631012    0.29082007    -0.16370000
opls_521-104    C    0.27215009    0.26544002    0.34367993    0.03190000
opls_700-105    C    0.26154008    0.27342013    0.38128994    0.00680000
opls_523-106    C    0.22348010    0.28253013    0.38885986    -0.12400000
opls_522-107    C    0.19659011    0.28246987    0.35950000    -0.16370000
opls_521-108    C    0.81771006    0.27276009    0.71146987    0.13760000
opls_142-109    C    0.70999005    0.27246987    0.58794002    0.07190000
opls_521-110    C    0.79172996    0.27377004    0.67771006    0.13760000
opls_142-111    C    0.73916998    0.18833002    0.88501990    0.07200000
opls_145-112    C    0.74850000    0.43190989    0.64656993    0.19660000
opls_145-113    C    0.72118988    0.46016003    0.63887010    -0.16770000
opls_145-114    C    0.72218988    0.47998010    0.60428994    -0.12650000
opls_700-115    C    0.75046987    0.47183997    0.57728994    0.06360000
opls_145-116    C    0.77856993    0.44490989    0.58603013    -0.11580000
opls_145-117    C    0.77734991    0.42500995    0.62020011    -0.15760000
opls_700-118    C    0.74873991    0.48749005    0.53822996    0.03120000
opls_145-119    C    0.74810006    0.46140989    0.50800995    -0.17420000
opls_700-120    C    0.74789994    0.47317993    0.46987010    0.03180000
opls_700-121    C    0.74844002    0.55681012    0.55983997    0.06710000
opls_145-122    C    0.72296987    0.58746987    0.55709011    -0.11450000
opls_145-123    C    0.72699005    0.61916998    0.58050995    -0.16510000
opls_145-124    C    0.75638005    0.62067993    0.60745992    0.19570000
opls_145-125    C    0.78018988    0.58911001    0.61216003    -0.16170000
opls_145-126    C    0.77668988    0.55756993    0.58810006    -0.12710000
opls_521-127    C    0.77875014    0.17820011    0.73653013    -0.04840000
opls_700-128    C    0.77744997    0.13849005    0.73367993    0.00780000
opls_523-129    C    0.74223991    0.12090989    0.72722996    -0.11880000
opls_522-130    C    0.70917993    0.14264014    0.72368988    -0.16370000
opls_521-131    C    0.65632007    0.27215009    0.73455998    0.03200000
opls_700-132    C    0.61871006    0.26154008    0.72657987    0.00680000
opls_523-133    C    0.61114014    0.22348010    0.71746987    -0.12400000
opls_522-134    C    0.64050000    0.19659011    0.71753013    -0.16370000
opls_521-135    C    0.81771006    0.72723991    0.28853013    0.13770000
opls_142-136    C    0.70999005    0.72753013    0.41205998    0.07200000
opls_521-137    C    0.79172996    0.72622996    0.32228994    0.13760000
opls_142-138    C    0.73916998    0.81166998    0.11498010    0.07200000
opls_145-139    C    0.74850000    0.56809011    0.35343007    0.19660000
opls_145-140    C    0.72118988    0.53983997    0.36112990    -0.16760000
opls_145-141    C    0.72218988    0.52001990    0.39571006    -0.12650000
opls_700-142    C    0.75046987    0.52816003    0.42271006    0.06370000
opls_145-143    C    0.77856993    0.55509011    0.41396987    -0.11580000
opls_145-144    C    0.77734991    0.57499005    0.37979989    -0.15760000
opls_700-145    C    0.74873991    0.51250995    0.46177004    0.03120000
opls_145-146    C    0.74810006    0.53859011    0.49199005    -0.17420000
opls_700-147    C    0.74789994    0.52682007    0.53012990    0.03180000
opls_700-148    C    0.74844002    0.44318988    0.44016003    0.06710000
opls_145-149    C    0.72296987    0.41253013    0.44290989    -0.11460000
opls_145-150    C    0.72699005    0.38083002    0.41949005    -0.16510000
opls_145-151    C    0.75638005    0.37932007    0.39254008    0.19570000
opls_145-152    C    0.78018988    0.41088999    0.38783997    -0.16170000
opls_145-153    C    0.77668988    0.44243007    0.41189994    -0.12700000
opls_521-154    C    0.77875014    0.82179989    0.26346987    -0.04840000
opls_700-155    C    0.77744997    0.86150995    0.26632007    0.00780000
opls_523-156    C    0.74223991    0.87909011    0.27277004    -0.11880000
opls_522-157    C    0.70917993    0.85735986    0.27631012    -0.16370000
opls_521-158    C    0.65632007    0.72784991    0.26544002    0.03190000
opls_700-159    C    0.61871006    0.73845992    0.27342013    0.00680000
opls_523-160    C    0.61114014    0.77651990    0.28253013    -0.12400000
opls_522-161    C    0.64050000    0.80340989    0.28246987    -0.16370000
opls_521-162    C    0.18228994    0.72723991    0.71146987    0.13760000
opls_142-163    C    0.29000995    0.72753013    0.58794002    0.07190000
opls_521-164    C    0.20827004    0.72622996    0.67771006    0.13760000
opls_142-165    C    0.26083002    0.81166998    0.88501990    0.07200000
opls_145-166    C    0.25150000    0.56809011    0.64656993    0.19680000
opls_145-167    C    0.27881012    0.53983997    0.63887010    -0.16770000
opls_145-168    C    0.27781012    0.52001990    0.60428994    -0.12640000
opls_700-169    C    0.24953013    0.52816003    0.57728994    0.06360000
opls_145-170    C    0.22143007    0.55509011    0.58603013    -0.11580000
opls_145-171    C    0.22265009    0.57499005    0.62020011    -0.15760000
opls_700-172    C    0.25126009    0.51250995    0.53822996    0.03120000
opls_145-173    C    0.25189994    0.53859011    0.50800995    -0.17410000
opls_700-174    C    0.25210006    0.52682007    0.46987010    0.03180000
opls_700-175    C    0.25155998    0.44318988    0.55983997    0.06710000
opls_145-176    C    0.27703013    0.41253013    0.55709011    -0.11460000
opls_145-177    C    0.27300995    0.38083002    0.58050995    -0.16510000
opls_145-178    C    0.24361995    0.37932007    0.60745992    0.19570000
opls_145-179    C    0.21981012    0.41088999    0.61216003    -0.16160000
opls_145-180    C    0.22331012    0.44243007    0.58810006    -0.12710000
opls_521-181    C    0.22124986    0.82179989    0.73653013    -0.04840000
opls_700-182    C    0.22255003    0.86150995    0.73367993    0.00780000
opls_523-183    C    0.25776009    0.87909011    0.72722996    -0.11880000
opls_522-184    C    0.29082007    0.85735986    0.72368988    -0.16360000
opls_521-185    C    0.34367993    0.72784991    0.73455998    0.03190000
opls_700-186    C    0.38128994    0.73845992    0.72657987    0.00680000
opls_523-187    C    0.38885986    0.77651990    0.71746987    -0.12400000
opls_522-188    C    0.35950000    0.80340989    0.71753013    -0.16370000
opls_521-189    C    0.18228994    0.27276009    0.28853013    0.13760000
opls_142-190    C    0.29000995    0.27246987    0.41205998    0.07200000
opls_521-191    C    0.20827004    0.27377004    0.32228994    0.13760000
opls_142-192    C    0.26083002    0.18833002    0.11498010    0.07200000
opls_145-193    C    0.25150000    0.43190989    0.35343007    0.19670000
opls_145-194    C    0.27881012    0.46016003    0.36112990    -0.16770000
opls_145-195    C    0.27781012    0.47998010    0.39571006    -0.12650000
opls_700-196    C    0.24953013    0.47183997    0.42271006    0.06360000
opls_145-197    C    0.22143007    0.44490989    0.41396987    -0.11580000
opls_145-198    C    0.22265009    0.42500995    0.37979989    -0.15760000
opls_700-199    C    0.25126009    0.48749005    0.46177004    0.03120000
opls_145-200    C    0.25189994    0.46140989    0.49199005    -0.17410000
opls_700-201    C    0.25210006    0.47317993    0.53012990    0.03180000
opls_700-202    C    0.25155998    0.55681012    0.44016003    0.06710000
opls_145-203    C    0.27703013    0.58746987    0.44290989    -0.11460000
opls_145-204    C    0.27300995    0.61916998    0.41949005    -0.16510000
opls_145-205    C    0.24361995    0.62067993    0.39254008    0.19570000
opls_145-206    C    0.21981012    0.58911001    0.38783997    -0.16170000
opls_145-207    C    0.22331012    0.55756993    0.41189994    -0.12710000
opls_521-208    C    0.22124986    0.17820011    0.26346987    -0.04830000
opls_700-209    C    0.22255003    0.13849005    0.26632007    0.00780000
opls_523-210    C    0.25776009    0.12090989    0.27277004    -0.11880000
opls_522-211    C    0.29082007    0.14264014    0.27631012    -0.16370000
opls_521-212    C    0.34367993    0.27215009    0.26544002    0.03190000
opls_700-213    C    0.38128994    0.26154008    0.27342013    0.00680000
opls_523-214    C    0.38885986    0.22348010    0.28253013    -0.12400000
opls_522-215    C    0.35950000    0.19659011    0.28246987    -0.16370000
opls_521-216    C    0.71146987    0.18228994    0.72723991    0.13760000
opls_142-217    C    0.58794002    0.29000995    0.72753013    0.07190000
opls_521-218    C    0.67771006    0.20827004    0.72622996    0.13760000
opls_142-219    C    0.88501990    0.26083002    0.81166998    0.07200000
opls_145-220    C    0.64656993    0.25150000    0.56809011    0.19660000
opls_145-221    C    0.63887010    0.27881012    0.53983997    -0.16770000
opls_145-222    C    0.60428994    0.27781012    0.52001990    -0.12640000
opls_700-223    C    0.57728994    0.24953013    0.52816003    0.06360000
opls_145-224    C    0.58603013    0.22143007    0.55509011    -0.11580000
opls_145-225    C    0.62020011    0.22265009    0.57499005    -0.15750000
opls_700-226    C    0.53822996    0.25126009    0.51250995    0.03120000
opls_145-227    C    0.50800995    0.25189994    0.53859011    -0.17410000
opls_700-228    C    0.46987010    0.25210006    0.52682007    0.03180000
opls_700-229    C    0.55983997    0.25155998    0.44318988    0.06710000
opls_145-230    C    0.55709011    0.27703013    0.41253013    -0.11460000
opls_145-231    C    0.58050995    0.27300995    0.38083002    -0.16500000
opls_145-232    C    0.60745992    0.24361995    0.37932007    0.19570000
opls_145-233    C    0.61216003    0.21981012    0.41088999    -0.16170000
opls_145-234    C    0.58810006    0.22331012    0.44243007    -0.12710000
opls_521-235    C    0.73653013    0.22124986    0.82179989    -0.04840000
opls_700-236    C    0.73367993    0.22255003    0.86150995    0.00780000
opls_523-237    C    0.72722996    0.25776009    0.87909011    -0.11880000
opls_522-238    C    0.72368988    0.29082007    0.85735986    -0.16370000
opls_521-239    C    0.73455998    0.34367993    0.72784991    0.03190000
opls_700-240    C    0.72657987    0.38128994    0.73845992    0.00680000
opls_523-241    C    0.71746987    0.38885986    0.77651990    -0.12400000
opls_522-242    C    0.71753013    0.35950000    0.80340989    -0.16360000
opls_521-243    C    0.28853013    0.18228994    0.27276009    0.13760000
opls_142-244    C    0.41205998    0.29000995    0.27246987    0.07190000
opls_521-245    C    0.32228994    0.20827004    0.27377004    0.13760000
opls_142-246    C    0.11498010    0.26083002    0.18833002    0.07200000
opls_145-247    C    0.35343007    0.25150000    0.43190989    0.19660000
opls_145-248    C    0.36112990    0.27881012    0.46016003    -0.16770000
opls_145-249    C    0.39571006    0.27781012    0.47998010    -0.12650000
opls_700-250    C    0.42271006    0.24953013    0.47183997    0.06360000
opls_145-251    C    0.41396987    0.22143007    0.44490989    -0.11580000
opls_145-252    C    0.37979989    0.22265009    0.42500995    -0.15760000
opls_700-253    C    0.46177004    0.25126009    0.48749005    0.03120000
opls_145-254    C    0.49199005    0.25189994    0.46140989    -0.17420000
opls_700-255    C    0.53012990    0.25210006    0.47317993    0.03180000
opls_700-256    C    0.44016003    0.25155998    0.55681012    0.06710000
opls_145-257    C    0.44290989    0.27703013    0.58746987    -0.11450000
opls_145-258    C    0.41949005    0.27300995    0.61916998    -0.16510000
opls_145-259    C    0.39254008    0.24361995    0.62067993    0.19570000
opls_145-260    C    0.38783997    0.21981012    0.58911001    -0.16170000
opls_145-261    C    0.41189994    0.22331012    0.55756993    -0.12710000
opls_521-262    C    0.26346987    0.22124986    0.17820011    -0.04840000
opls_700-263    C    0.26632007    0.22255003    0.13849005    0.00780000
opls_523-264    C    0.27277004    0.25776009    0.12090989    -0.11880000
opls_522-265    C    0.27631012    0.29082007    0.14264014    -0.16370000
opls_521-266    C    0.26544002    0.34367993    0.27215009    0.03190000
opls_700-267    C    0.27342013    0.38128994    0.26154008    0.00680000
opls_523-268    C    0.28253013    0.38885986    0.22348010    -0.12400000
opls_522-269    C    0.28246987    0.35950000    0.19659011    -0.16370000
opls_521-270    C    0.71146987    0.81771006    0.27276009    0.13760000
opls_142-271    C    0.58794002    0.70999005    0.27246987    0.07190000
opls_521-272    C    0.67771006    0.79172996    0.27377004    0.13760000
opls_142-273    C    0.88501990    0.73916998    0.18833002    0.07200000
opls_145-274    C    0.64656993    0.74850000    0.43190989    0.19660000
opls_145-275    C    0.63887010    0.72118988    0.46016003    -0.16760000
opls_145-276    C    0.60428994    0.72218988    0.47998010    -0.12650000
opls_700-277    C    0.57728994    0.75046987    0.47183997    0.06360000
opls_145-278    C    0.58603013    0.77856993    0.44490989    -0.11580000
opls_145-279    C    0.62020011    0.77734991    0.42500995    -0.15760000
opls_700-280    C    0.53822996    0.74873991    0.48749005    0.03130000
opls_145-281    C    0.50800995    0.74810006    0.46140989    -0.17420000
opls_700-282    C    0.46987010    0.74789994    0.47317993    0.03180000
opls_700-283    C    0.55983997    0.74844002    0.55681012    0.06710000
opls_145-284    C    0.55709011    0.72296987    0.58746987    -0.11460000
opls_145-285    C    0.58050995    0.72699005    0.61916998    -0.16510000
opls_145-286    C    0.60745992    0.75638005    0.62067993    0.19570000
opls_145-287    C    0.61216003    0.78018988    0.58911001    -0.16170000
opls_145-288    C    0.58810006    0.77668988    0.55756993    -0.12710000
opls_521-289    C    0.73653013    0.77875014    0.17820011    -0.04840000
opls_700-290    C    0.73367993    0.77744997    0.13849005    0.00780000
opls_523-291    C    0.72722996    0.74223991    0.12090989    -0.11880000
opls_522-292    C    0.72368988    0.70917993    0.14264014    -0.16360000
opls_521-293    C    0.73455998    0.65632007    0.27215009    0.03190000
opls_700-294    C    0.72657987    0.61871006    0.26154008    0.00680000
opls_523-295    C    0.71746987    0.61114014    0.22348010    -0.12400000
opls_522-296    C    0.71753013    0.64050000    0.19659011    -0.16360000
opls_521-297    C    0.28853013    0.81771006    0.72723991    0.13760000
opls_142-298    C    0.41205998    0.70999005    0.72753013    0.07190000
opls_521-299    C    0.32228994    0.79172996    0.72622996    0.13760000
opls_142-300    C    0.11498010    0.73916998    0.81166998    0.07200000
opls_145-301    C    0.35343007    0.74850000    0.56809011    0.19660000
opls_145-302    C    0.36112990    0.72118988    0.53983997    -0.16770000
opls_145-303    C    0.39571006    0.72218988    0.52001990    -0.12650000
opls_700-304    C    0.42271006    0.75046987    0.52816003    0.06360000
opls_145-305    C    0.41396987    0.77856993    0.55509011    -0.11580000
opls_145-306    C    0.37979989    0.77734991    0.57499005    -0.15760000
opls_700-307    C    0.46177004    0.74873991    0.51250995    0.03120000
opls_145-308    C    0.49199005    0.74810006    0.53859011    -0.17420000
opls_700-309    C    0.53012990    0.74789994    0.52682007    0.03180000
opls_700-310    C    0.44016003    0.74844002    0.44318988    0.06710000
opls_145-311    C    0.44290989    0.72296987    0.41253013    -0.11460000
opls_145-312    C    0.41949005    0.72699005    0.38083002    -0.16510000
opls_145-313    C    0.39254008    0.75638005    0.37932007    0.19590000
opls_145-314    C    0.38783997    0.78018988    0.41088999    -0.16170000
opls_145-315    C    0.41189994    0.77668988    0.44243007    -0.12710000
opls_521-316    C    0.26346987    0.77875014    0.82179989    -0.04840000
opls_700-317    C    0.26632007    0.77744997    0.86150995    0.00780000
opls_523-318    C    0.27277004    0.74223991    0.87909011    -0.11880000
opls_522-319    C    0.27631012    0.70917993    0.85735986    -0.16370000
opls_521-320    C    0.26544002    0.65632007    0.72784991    0.03190000
opls_700-321    C    0.27342013    0.61871006    0.73845992    0.00680000
opls_523-322    C    0.28253013    0.61114014    0.77651990    -0.12400000
opls_522-323    C    0.28246987    0.64050000    0.80340989    -0.16370000
opls_521-324    C    0.77276009    0.21146987    0.31771006    0.13760000
opls_142-325    C    0.77246987    0.08794002    0.20999005    0.07190000
opls_521-326    C    0.77377004    0.17771006    0.29172996    0.13760000
opls_142-327    C    0.68833002    0.38501990    0.23916998    0.07200000
opls_145-328    C    0.93190989    0.14656993    0.24850000    0.19660000
opls_145-329    C    0.96016003    0.13887010    0.22118988    -0.16770000
opls_145-330    C    0.97998010    0.10428994    0.22218988    -0.12650000
opls_700-331    C    0.97183997    0.07728994    0.25046987    0.06360000
opls_145-332    C    0.94490989    0.08603013    0.27856993    -0.11580000
opls_145-333    C    0.92500995    0.12020011    0.27734991    -0.15750000
opls_700-334    C    0.98749005    0.03822996    0.24873991    0.03120000
opls_145-335    C    0.96140989    0.00800995    0.24810006    -0.17420000
opls_700-336    C    0.97317993    0.96987010    0.24789994    0.03180000
opls_700-337    C    0.05681012    0.05983997    0.24844002    0.06710000
opls_145-338    C    0.08746987    0.05709011    0.22296987    -0.11460000
opls_145-339    C    0.11916998    0.08050995    0.22699005    -0.16510000
opls_145-340    C    0.12067993    0.10745992    0.25638005    0.19570000
opls_145-341    C    0.08911001    0.11216003    0.28018988    -0.16170000
opls_145-342    C    0.05756993    0.08810006    0.27668988    -0.12700000
opls_521-343    C    0.67820011    0.23653013    0.27875014    -0.04840000
opls_700-344    C    0.63849005    0.23367993    0.27744997    0.00780000
opls_523-345    C    0.62090989    0.22722996    0.24223991    -0.11880000
opls_522-346    C    0.64264014    0.22368988    0.20917993    -0.16370000
opls_521-347    C    0.77215009    0.23455998    0.15632007    0.03190000
opls_700-348    C    0.76154008    0.22657987    0.11871006    0.00680000
opls_523-349    C    0.72348010    0.21746987    0.11114014    -0.12400000
opls_522-350    C    0.69659011    0.21753013    0.14050000    -0.16360000
opls_521-351    C    0.22723991    0.78853013    0.31771006    0.13760000
opls_142-352    C    0.22753013    0.91205998    0.20999005    0.07190000
opls_521-353    C    0.22622996    0.82228994    0.29172996    0.13760000
opls_142-354    C    0.31166998    0.61498010    0.23916998    0.07200000
opls_145-355    C    0.06809011    0.85343007    0.24850000    0.19670000
opls_145-356    C    0.03983997    0.86112990    0.22118988    -0.16770000
opls_145-357    C    0.02001990    0.89571006    0.22218988    -0.12650000
opls_700-358    C    0.02816003    0.92271006    0.25046987    0.06360000
opls_145-359    C    0.05509011    0.91396987    0.27856993    -0.11580000
opls_145-360    C    0.07499005    0.87979989    0.27734991    -0.15760000
opls_700-361    C    0.01250995    0.96177004    0.24873991    0.03120000
opls_145-362    C    0.03859011    0.99199005    0.24810006    -0.17420000
opls_700-363    C    0.02682007    0.03012990    0.24789994    0.03180000
opls_700-364    C    0.94318988    0.94016003    0.24844002    0.06710000
opls_145-365    C    0.91253013    0.94290989    0.22296987    -0.11460000
opls_145-366    C    0.88083002    0.91949005    0.22699005    -0.16510000
opls_145-367    C    0.87932007    0.89254008    0.25638005    0.19570000
opls_145-368    C    0.91088999    0.88783997    0.28018988    -0.16170000
opls_145-369    C    0.94243007    0.91189994    0.27668988    -0.12710000
opls_521-370    C    0.32179989    0.76346987    0.27875014    -0.04830000
opls_700-371    C    0.36150995    0.76632007    0.27744997    0.00780000
opls_523-372    C    0.37909011    0.77277004    0.24223991    -0.11870000
opls_522-373    C    0.35735986    0.77631012    0.20917993    -0.16370000
opls_521-374    C    0.22784991    0.76544002    0.15632007    0.03190000
opls_700-375    C    0.23845992    0.77342013    0.11871006    0.00680000
opls_523-376    C    0.27651990    0.78253013    0.11114014    -0.12400000
opls_522-377    C    0.30340989    0.78246987    0.14050000    -0.16370000
opls_521-378    C    0.22723991    0.21146987    0.68228994    0.13760000
opls_142-379    C    0.22753013    0.08794002    0.79000995    0.07190000
opls_521-380    C    0.22622996    0.17771006    0.70827004    0.13770000
opls_142-381    C    0.31166998    0.38501990    0.76083002    0.07200000
opls_145-382    C    0.06809011    0.14656993    0.75150000    0.19660000
opls_145-383    C    0.03983997    0.13887010    0.77881012    -0.16770000
opls_145-384    C    0.02001990    0.10428994    0.77781012    -0.12650000
opls_700-385    C    0.02816003    0.07728994    0.74953013    0.06360000
opls_145-386    C    0.05509011    0.08603013    0.72143007    -0.11580000
opls_145-387    C    0.07499005    0.12020011    0.72265009    -0.15760000
opls_700-388    C    0.01250995    0.03822996    0.75126009    0.03120000
opls_145-389    C    0.03859011    0.00800995    0.75189994    -0.17420000
opls_700-390    C    0.02682007    0.96987010    0.75210006    0.03180000
opls_700-391    C    0.94318988    0.05983997    0.75155998    0.06710000
opls_145-392    C    0.91253013    0.05709011    0.77703013    -0.11460000
opls_145-393    C    0.88083002    0.08050995    0.77300995    -0.16510000
opls_145-394    C    0.87932007    0.10745992    0.74361995    0.19570000
opls_145-395    C    0.91088999    0.11216003    0.71981012    -0.16170000
opls_145-396    C    0.94243007    0.08810006    0.72331012    -0.12700000
opls_521-397    C    0.32179989    0.23653013    0.72124986    -0.04840000
opls_700-398    C    0.36150995    0.23367993    0.72255003    0.00780000
opls_523-399    C    0.37909011    0.22722996    0.75776009    -0.11880000
opls_522-400    C    0.35735986    0.22368988    0.79082007    -0.16370000
opls_521-401    C    0.22784991    0.23455998    0.84367993    0.03190000
opls_700-402    C    0.23845992    0.22657987    0.88128994    0.00680000
opls_523-403    C    0.27651990    0.21746987    0.88885986    -0.12400000
opls_522-404    C    0.30340989    0.21753013    0.85950000    -0.16370000
opls_521-405    C    0.77276009    0.78853013    0.68228994    0.13760000
opls_142-406    C    0.77246987    0.91205998    0.79000995    0.07190000
opls_521-407    C    0.77377004    0.82228994    0.70827004    0.13770000
opls_142-408    C    0.68833002    0.61498010    0.76083002    0.07210000
opls_145-409    C    0.93190989    0.85343007    0.75150000    0.19660000
opls_145-410    C    0.96016003    0.86112990    0.77881012    -0.16770000
opls_145-411    C    0.97998010    0.89571006    0.77781012    -0.12650000
opls_700-412    C    0.97183997    0.92271006    0.74953013    0.06360000
opls_145-413    C    0.94490989    0.91396987    0.72143007    -0.11580000
opls_145-414    C    0.92500995    0.87979989    0.72265009    -0.15760000
opls_700-415    C    0.98749005    0.96177004    0.75126009    0.03120000
opls_145-416    C    0.96140989    0.99199005    0.75189994    -0.17410000
opls_700-417    C    0.97317993    0.03012990    0.75210006    0.03180000
opls_700-418    C    0.05681012    0.94016003    0.75155998    0.06720000
opls_145-419    C    0.08746987    0.94290989    0.77703013    -0.11450000
opls_145-420    C    0.11916998    0.91949005    0.77300995    -0.16510000
opls_145-421    C    0.12067993    0.89254008    0.74361995    0.19570000
opls_145-422    C    0.08911001    0.88783997    0.71981012    -0.16160000
opls_145-423    C    0.05756993    0.91189994    0.72331012    -0.12710000
opls_521-424    C    0.67820011    0.76346987    0.72124986    -0.04840000
opls_700-425    C    0.63849005    0.76632007    0.72255003    0.00780000
opls_523-426    C    0.62090989    0.77277004    0.75776009    -0.11880000
opls_522-427    C    0.64264014    0.77631012    0.79082007    -0.16370000
opls_521-428    C    0.77215009    0.76544002    0.84367993    0.03190000
opls_700-429    C    0.76154008    0.77342013    0.88128994    0.00680000
opls_523-430    C    0.72348010    0.78253013    0.88885986    -0.12400000
opls_522-431    C    0.69659011    0.78246987    0.85950000    -0.16370000
opls_521-432    C    0.31771006    0.77276009    0.21146987    0.13760000
opls_142-433    C    0.20999005    0.77246987    0.08794002    0.07190000
opls_521-434    C    0.29172996    0.77377004    0.17771006    0.13760000
opls_142-435    C    0.23916998    0.68833002    0.38501990    0.07200000
opls_145-436    C    0.24850000    0.93190989    0.14656993    0.19660000
opls_145-437    C    0.22118988    0.96016003    0.13887010    -0.16770000
opls_145-438    C    0.22218988    0.97998010    0.10428994    -0.12650000
opls_700-439    C    0.25046987    0.97183997    0.07728994    0.06360000
opls_145-440    C    0.27856993    0.94490989    0.08603013    -0.11580000
opls_145-441    C    0.27734991    0.92500995    0.12020011    -0.15760000
opls_700-442    C    0.24873991    0.98749005    0.03822996    0.03120000
opls_145-443    C    0.24810006    0.96140989    0.00800995    -0.17410000
opls_700-444    C    0.24789994    0.97317993    0.96987010    0.03180000
opls_700-445    C    0.24844002    0.05681012    0.05983997    0.06710000
opls_145-446    C    0.22296987    0.08746987    0.05709011    -0.11460000
opls_145-447    C    0.22699005    0.11916998    0.08050995    -0.16490000
opls_145-448    C    0.25638005    0.12067993    0.10745992    0.19570000
opls_145-449    C    0.28018988    0.08911001    0.11216003    -0.16170000
opls_145-450    C    0.27668988    0.05756993    0.08810006    -0.12710000
opls_521-451    C    0.27875014    0.67820011    0.23653013    -0.04840000
opls_700-452    C    0.27744997    0.63849005    0.23367993    0.00780000
opls_523-453    C    0.24223991    0.62090989    0.22722996    -0.11880000
opls_522-454    C    0.20917993    0.64264014    0.22368988    -0.16370000
opls_521-455    C    0.15632007    0.77215009    0.23455998    0.03190000
opls_700-456    C    0.11871006    0.76154008    0.22657987    0.00680000
opls_523-457    C    0.11114014    0.72348010    0.21746987    -0.12400000
opls_522-458    C    0.14050000    0.69659011    0.21753013    -0.16370000
opls_521-459    C    0.31771006    0.22723991    0.78853013    0.13760000
opls_142-460    C    0.20999005    0.22753013    0.91205998    0.07190000
opls_521-461    C    0.29172996    0.22622996    0.82228994    0.13760000
opls_142-462    C    0.23916998    0.31166998    0.61498010    0.07200000
opls_145-463    C    0.24850000    0.06809011    0.85343007    0.19660000
opls_145-464    C    0.22118988    0.03983997    0.86112990    -0.16770000
opls_145-465    C    0.22218988    0.02001990    0.89571006    -0.12650000
opls_700-466    C    0.25046987    0.02816003    0.92271006    0.06360000
opls_145-467    C    0.27856993    0.05509011    0.91396987    -0.11580000
opls_145-468    C    0.27734991    0.07499005    0.87979989    -0.15760000
opls_700-469    C    0.24873991    0.01250995    0.96177004    0.03120000
opls_145-470    C    0.24810006    0.03859011    0.99199005    -0.17420000
opls_700-471    C    0.24789994    0.02682007    0.03012990    0.03180000
opls_700-472    C    0.24844002    0.94318988    0.94016003    0.06710000
opls_145-473    C    0.22296987    0.91253013    0.94290989    -0.11460000
opls_145-474    C    0.22699005    0.88083002    0.91949005    -0.16510000
opls_145-475    C    0.25638005    0.87932007    0.89254008    0.19570000
opls_145-476    C    0.28018988    0.91088999    0.88783997    -0.16170000
opls_145-477    C    0.27668988    0.94243007    0.91189994    -0.12710000
opls_521-478    C    0.27875014    0.32179989    0.76346987    -0.04840000
opls_700-479    C    0.27744997    0.36150995    0.76632007    0.00780000
opls_523-480    C    0.24223991    0.37909011    0.77277004    -0.11880000
opls_522-481    C    0.20917993    0.35735986    0.77631012    -0.16370000
opls_521-482    C    0.15632007    0.22784991    0.76544002    0.03190000
opls_700-483    C    0.11871006    0.23845992    0.77342013    0.00680000
opls_523-484    C    0.11114014    0.27651990    0.78253013    -0.12400000
opls_522-485    C    0.14050000    0.30340989    0.78246987    -0.16370000
opls_521-486    C    0.68228994    0.22723991    0.21146987    0.13770000
opls_142-487    C    0.79000995    0.22753013    0.08794002    0.07190000
opls_521-488    C    0.70827004    0.22622996    0.17771006    0.13760000
opls_142-489    C    0.76083002    0.31166998    0.38501990    0.07200000
opls_145-490    C    0.75150000    0.06809011    0.14656993    0.19660000
opls_145-491    C    0.77881012    0.03983997    0.13887010    -0.16770000
opls_145-492    C    0.77781012    0.02001990    0.10428994    -0.12650000
opls_700-493    C    0.74953013    0.02816003    0.07728994    0.06360000
opls_145-494    C    0.72143007    0.05509011    0.08603013    -0.11580000
opls_145-495    C    0.72265009    0.07499005    0.12020011    -0.15760000
opls_700-496    C    0.75126009    0.01250995    0.03822996    0.03120000
opls_145-497    C    0.75189994    0.03859011    0.00800995    -0.17420000
opls_700-498    C    0.75210006    0.02682007    0.96987010    0.03180000
opls_700-499    C    0.75155998    0.94318988    0.05983997    0.06710000
opls_145-500    C    0.77703013    0.91253013    0.05709011    -0.11460000
opls_145-501    C    0.77300995    0.88083002    0.08050995    -0.16510000
opls_145-502    C    0.74361995    0.87932007    0.10745992    0.19570000
opls_145-503    C    0.71981012    0.91088999    0.11216003    -0.16170000
opls_145-504    C    0.72331012    0.94243007    0.08810006    -0.12690000
opls_521-505    C    0.72124986    0.32179989    0.23653013    -0.04840000
opls_700-506    C    0.72255003    0.36150995    0.23367993    0.00780000
opls_523-507    C    0.75776009    0.37909011    0.22722996    -0.11880000
opls_522-508    C    0.79082007    0.35735986    0.22368988    -0.16370000
opls_521-509    C    0.84367993    0.22784991    0.23455998    0.03190000
opls_700-510    C    0.88128994    0.23845992    0.22657987    0.00680000
opls_523-511    C    0.88885986    0.27651990    0.21746987    -0.12400000
opls_522-512    C    0.85950000    0.30340989    0.21753013    -0.16360000
opls_521-513    C    0.68228994    0.77276009    0.78853013    0.13760000
opls_142-514    C    0.79000995    0.77246987    0.91205998    0.07190000
opls_521-515    C    0.70827004    0.77377004    0.82228994    0.13760000
opls_142-516    C    0.76083002    0.68833002    0.61498010    0.07200000
opls_145-517    C    0.75150000    0.93190989    0.85343007    0.19670000
opls_145-518    C    0.77881012    0.96016003    0.86112990    -0.16760000
opls_145-519    C    0.77781012    0.97998010    0.89571006    -0.12650000
opls_700-520    C    0.74953013    0.97183997    0.92271006    0.06360000
opls_145-521    C    0.72143007    0.94490989    0.91396987    -0.11580000
opls_145-522    C    0.72265009    0.92500995    0.87979989    -0.15760000
opls_700-523    C    0.75126009    0.98749005    0.96177004    0.03120000
opls_145-524    C    0.75189994    0.96140989    0.99199005    -0.17420000
opls_700-525    C    0.75210006    0.97317993    0.03012990    0.03180000
opls_700-526    C    0.75155998    0.05681012    0.94016003    0.06710000
opls_145-527    C    0.77703013    0.08746987    0.94290989    -0.11460000
opls_145-528    C    0.77300995    0.11916998    0.91949005    -0.16510000
opls_145-529    C    0.74361995    0.12067993    0.89254008    0.19570000
opls_145-530    C    0.71981012    0.08911001    0.88783997    -0.16170000
opls_145-531    C    0.72331012    0.05756993    0.91189994    -0.12710000
opls_521-532    C    0.72124986    0.67820011    0.76346987    -0.04840000
opls_700-533    C    0.72255003    0.63849005    0.76632007    0.00780000
opls_523-534    C    0.75776009    0.62090989    0.77277004    -0.11880000
opls_522-535    C    0.79082007    0.64264014    0.77631012    -0.16370000
opls_521-536    C    0.84367993    0.77215009    0.76544002    0.03190000
opls_700-537    C    0.88128994    0.76154008    0.77342013    0.00680000
opls_523-538    C    0.88885986    0.72348010    0.78253013    -0.12400000
opls_522-539    C    0.85950000    0.69659011    0.78246987    -0.16360000
opls_521-540    C    0.21146987    0.68228994    0.22723991    0.13760000
opls_142-541    C    0.08794002    0.79000995    0.22753013    0.07190000
opls_521-542    C    0.17771006    0.70827004    0.22622996    0.13760000
opls_142-543    C    0.38501990    0.76083002    0.31166998    0.07200000
opls_145-544    C    0.14656993    0.75150000    0.06809011    0.19660000
opls_145-545    C    0.13887010    0.77881012    0.03983997    -0.16770000
opls_145-546    C    0.10428994    0.77781012    0.02001990    -0.12650000
opls_700-547    C    0.07728994    0.74953013    0.02816003    0.06360000
opls_145-548    C    0.08603013    0.72143007    0.05509011    -0.11580000
opls_145-549    C    0.12020011    0.72265009    0.07499005    -0.15760000
opls_700-550    C    0.03822996    0.75126009    0.01250995    0.03120000
opls_145-551    C    0.00800995    0.75189994    0.03859011    -0.17420000
opls_700-552    C    0.96987010    0.75210006    0.02682007    0.03180000
opls_700-553    C    0.05983997    0.75155998    0.94318988    0.06710000
opls_145-554    C    0.05709011    0.77703013    0.91253013    -0.11460000
opls_145-555    C    0.08050995    0.77300995    0.88083002    -0.16510000
opls_145-556    C    0.10745992    0.74361995    0.87932007    0.19580000
opls_145-557    C    0.11216003    0.71981012    0.91088999    -0.16170000
opls_145-558    C    0.08810006    0.72331012    0.94243007    -0.12710000
opls_521-559    C    0.23653013    0.72124986    0.32179989    -0.04840000
opls_700-560    C    0.23367993    0.72255003    0.36150995    0.00780000
opls_523-561    C    0.22722996    0.75776009    0.37909011    -0.11880000
opls_522-562    C    0.22368988    0.79082007    0.35735986    -0.16370000
opls_521-563    C    0.23455998    0.84367993    0.22784991    0.03190000
opls_700-564    C    0.22657987    0.88128994    0.23845992    0.00680000
opls_523-565    C    0.21746987    0.88885986    0.27651990    -0.12400000
opls_522-566    C    0.21753013    0.85950000    0.30340989    -0.16370000
opls_521-567    C    0.78853013    0.68228994    0.77276009    0.13760000
opls_142-568    C    0.91205998    0.79000995    0.77246987    0.07190000
opls_521-569    C    0.82228994    0.70827004    0.77377004    0.13760000
opls_142-570    C    0.61498010    0.76083002    0.68833002    0.07200000
opls_145-571    C    0.85343007    0.75150000    0.93190989    0.19660000
opls_145-572    C    0.86112990    0.77881012    0.96016003    -0.16760000
opls_145-573    C    0.89571006    0.77781012    0.97998010    -0.12650000
opls_700-574    C    0.92271006    0.74953013    0.97183997    0.06360000
opls_145-575    C    0.91396987    0.72143007    0.94490989    -0.11580000
opls_145-576    C    0.87979989    0.72265009    0.92500995    -0.15760000
opls_700-577    C    0.96177004    0.75126009    0.98749005    0.03120000
opls_145-578    C    0.99199005    0.75189994    0.96140989    -0.17420000
opls_700-579    C    0.03012990    0.75210006    0.97317993    0.03180000
opls_700-580    C    0.94016003    0.75155998    0.05681012    0.06710000
opls_145-581    C    0.94290989    0.77703013    0.08746987    -0.11460000
opls_145-582    C    0.91949005    0.77300995    0.11916998    -0.16500000
opls_145-583    C    0.89254008    0.74361995    0.12067993    0.19580000
opls_145-584    C    0.88783997    0.71981012    0.08911001    -0.16170000
opls_145-585    C    0.91189994    0.72331012    0.05756993    -0.12710000
opls_521-586    C    0.76346987    0.72124986    0.67820011    -0.04840000
opls_700-587    C    0.76632007    0.72255003    0.63849005    0.00780000
opls_523-588    C    0.77277004    0.75776009    0.62090989    -0.11880000
opls_522-589    C    0.77631012    0.79082007    0.64264014    -0.16370000
opls_521-590    C    0.76544002    0.84367993    0.77215009    0.03190000
opls_700-591    C    0.77342013    0.88128994    0.76154008    0.00680000
opls_523-592    C    0.78253013    0.88885986    0.72348010    -0.12400000
opls_522-593    C    0.78246987    0.85950000    0.69659011    -0.16370000
opls_521-594    C    0.21146987    0.31771006    0.77276009    0.13760000
opls_142-595    C    0.08794002    0.20999005    0.77246987    0.07190000
opls_521-596    C    0.17771006    0.29172996    0.77377004    0.13780000
opls_142-597    C    0.38501990    0.23916998    0.68833002    0.07200000
opls_145-598    C    0.14656993    0.24850000    0.93190989    0.19660000
opls_145-599    C    0.13887010    0.22118988    0.96016003    -0.16770000
opls_145-600    C    0.10428994    0.22218988    0.97998010    -0.12650000
opls_700-601    C    0.07728994    0.25046987    0.97183997    0.06360000
opls_145-602    C    0.08603013    0.27856993    0.94490989    -0.11570000
opls_145-603    C    0.12020011    0.27734991    0.92500995    -0.15760000
opls_700-604    C    0.03822996    0.24873991    0.98749005    0.03120000
opls_145-605    C    0.00800995    0.24810006    0.96140989    -0.17420000
opls_700-606    C    0.96987010    0.24789994    0.97317993    0.03190000
opls_700-607    C    0.05983997    0.24844002    0.05681012    0.06710000
opls_145-608    C    0.05709011    0.22296987    0.08746987    -0.11460000
opls_145-609    C    0.08050995    0.22699005    0.11916998    -0.16510000
opls_145-610    C    0.10745992    0.25638005    0.12067993    0.19570000
opls_145-611    C    0.11216003    0.28018988    0.08911001    -0.16160000
opls_145-612    C    0.08810006    0.27668988    0.05756993    -0.12710000
opls_521-613    C    0.23653013    0.27875014    0.67820011    -0.04830000
opls_700-614    C    0.23367993    0.27744997    0.63849005    0.00780000
opls_523-615    C    0.22722996    0.24223991    0.62090989    -0.11870000
opls_522-616    C    0.22368988    0.20917993    0.64264014    -0.16360000
opls_521-617    C    0.23455998    0.15632007    0.77215009    0.03190000
opls_700-618    C    0.22657987    0.11871006    0.76154008    0.00680000
opls_523-619    C    0.21746987    0.11114014    0.72348010    -0.12400000
opls_522-620    C    0.21753013    0.14050000    0.69659011    -0.16370000
opls_521-621    C    0.78853013    0.31771006    0.22723991    0.13760000
opls_142-622    C    0.91205998    0.20999005    0.22753013    0.07190000
opls_521-623    C    0.82228994    0.29172996    0.22622996    0.13760000
opls_142-624    C    0.61498010    0.23916998    0.31166998    0.07200000
opls_145-625    C    0.85343007    0.24850000    0.06809011    0.19660000
opls_145-626    C    0.86112990    0.22118988    0.03983997    -0.16770000
opls_145-627    C    0.89571006    0.22218988    0.02001990    -0.12650000
opls_700-628    C    0.92271006    0.25046987    0.02816003    0.06370000
opls_145-629    C    0.91396987    0.27856993    0.05509011    -0.11580000
opls_145-630    C    0.87979989    0.27734991    0.07499005    -0.15760000
opls_700-631    C    0.96177004    0.24873991    0.01250995    0.03120000
opls_145-632    C    0.99199005    0.24810006    0.03859011    -0.17420000
opls_700-633    C    0.03012990    0.24789994    0.02682007    0.03180000
opls_700-634    C    0.94016003    0.24844002    0.94318988    0.06710000
opls_145-635    C    0.94290989    0.22296987    0.91253013    -0.11460000
opls_145-636    C    0.91949005    0.22699005    0.88083002    -0.16510000
opls_145-637    C    0.89254008    0.25638005    0.87932007    0.19580000
opls_145-638    C    0.88783997    0.28018988    0.91088999    -0.16170000
opls_145-639    C    0.91189994    0.27668988    0.94243007    -0.12710000
opls_521-640    C    0.76346987    0.27875014    0.32179989    -0.04830000
opls_700-641    C    0.76632007    0.27744997    0.36150995    0.00780000
opls_523-642    C    0.77277004    0.24223991    0.37909011    -0.11880000
opls_522-643    C    0.77631012    0.20917993    0.35735986    -0.16370000
opls_521-644    C    0.76544002    0.15632007    0.22784991    0.03190000
opls_700-645    C    0.77342013    0.11871006    0.23845992    0.00680000
opls_523-646    C    0.78253013    0.11114014    0.27651990    -0.12400000
opls_522-647    C    0.78246987    0.14050000    0.30340989    -0.16370000
opls_750-648    N    0.40666003    0.67839994    0.74576009    -0.34100000
opls_750-649    N    0.12946987    0.73707987    0.84561995    -0.34090000
opls_239-650    N    0.26631012    0.74607987    0.80138999    -0.31310000
opls_239-651    N    0.31567993    0.75433997    0.73382007    -0.31310000
opls_750-652    N    0.59333997    0.32160006    0.74576009    -0.34110000
opls_750-653    N    0.87053013    0.26292013    0.84561995    -0.34090000
opls_239-654    N    0.73368988    0.25392013    0.80138999    -0.31320000
opls_239-655    N    0.68432007    0.24566003    0.73382007    -0.31320000
opls_750-656    N    0.59333997    0.67839994    0.25423991    -0.34110000
opls_750-657    N    0.87053013    0.73707987    0.15438005    -0.34090000
opls_239-658    N    0.73368988    0.74607987    0.19861001    -0.31320000
opls_239-659    N    0.68432007    0.75433997    0.26617993    -0.31320000
opls_750-660    N    0.40666003    0.32160006    0.25423991    -0.34110000
opls_750-661    N    0.12946987    0.26292013    0.15438005    -0.34090000
opls_239-662    N    0.26631012    0.25392013    0.19861001    -0.31320000
opls_239-663    N    0.31567993    0.24566003    0.26617993    -0.31320000
opls_750-664    N    0.74576009    0.40666003    0.67839994    -0.34110000
opls_750-665    N    0.84561995    0.12946987    0.73707987    -0.34090000
opls_239-666    N    0.80138999    0.26631012    0.74607987    -0.31320000
opls_239-667    N    0.73382007    0.31567993    0.75433997    -0.31310000
opls_750-668    N    0.74576009    0.59333997    0.32160006    -0.34110000
opls_750-669    N    0.84561995    0.87053013    0.26292013    -0.34090000
opls_239-670    N    0.80138999    0.73368988    0.25392013    -0.31320000
opls_239-671    N    0.73382007    0.68432007    0.24566003    -0.31320000
opls_750-672    N    0.25423991    0.59333997    0.67839994    -0.34110000
opls_750-673    N    0.15438005    0.87053013    0.73707987    -0.34090000
opls_239-674    N    0.19861001    0.73368988    0.74607987    -0.31320000
opls_239-675    N    0.26617993    0.68432007    0.75433997    -0.31320000
opls_750-676    N    0.25423991    0.40666003    0.32160006    -0.34100000
opls_750-677    N    0.15438005    0.12946987    0.26292013    -0.34070000
opls_239-678    N    0.19861001    0.26631012    0.25392013    -0.31320000
opls_239-679    N    0.26617993    0.31567993    0.24566003    -0.31320000
opls_750-680    N    0.67839994    0.25423991    0.59333997    -0.34100000
opls_750-681    N    0.73707987    0.15438005    0.87053013    -0.34090000
opls_239-682    N    0.74607987    0.19861001    0.73368988    -0.31320000
opls_239-683    N    0.75433997    0.26617993    0.68432007    -0.31320000
opls_750-684    N    0.32160006    0.25423991    0.40666003    -0.34110000
opls_750-685    N    0.26292013    0.15438005    0.12946987    -0.34090000
opls_239-686    N    0.25392013    0.19861001    0.26631012    -0.31320000
opls_239-687    N    0.24566003    0.26617993    0.31567993    -0.31320000
opls_750-688    N    0.67839994    0.74576009    0.40666003    -0.34100000
opls_750-689    N    0.73707987    0.84561995    0.12946987    -0.34080000
opls_239-690    N    0.74607987    0.80138999    0.26631012    -0.31320000
opls_239-691    N    0.75433997    0.73382007    0.31567993    -0.31320000
opls_750-692    N    0.32160006    0.74576009    0.59333997    -0.34110000
opls_750-693    N    0.26292013    0.84561995    0.87053013    -0.34090000
opls_239-694    N    0.25392013    0.80138999    0.73368988    -0.31320000
opls_239-695    N    0.24566003    0.73382007    0.68432007    -0.31320000
opls_750-696    N    0.90666003    0.17839994    0.24576009    -0.34110000
opls_750-697    N    0.62946987    0.23707987    0.34561995    -0.34090000
opls_239-698    N    0.76631012    0.24607987    0.30138999    -0.31310000
opls_239-699    N    0.81567993    0.25433997    0.23382007    -0.31290000
opls_750-700    N    0.09333997    0.82160006    0.24576009    -0.34090000
opls_750-701    N    0.37053013    0.76292013    0.34561995    -0.34080000
opls_239-702    N    0.23368988    0.75392013    0.30138999    -0.31290000
opls_239-703    N    0.18432007    0.74566003    0.23382007    -0.31310000
opls_750-704    N    0.09333997    0.17839994    0.75423991    -0.34110000
opls_750-705    N    0.37053013    0.23707987    0.65438005    -0.34080000
opls_239-706    N    0.23368988    0.24607987    0.69861001    -0.31320000
opls_239-707    N    0.18432007    0.25433997    0.76617993    -0.31310000
opls_750-708    N    0.90666003    0.82160006    0.75423991    -0.34110000
opls_750-709    N    0.62946987    0.76292013    0.65438005    -0.34080000
opls_239-710    N    0.76631012    0.75392013    0.69861001    -0.31310000
opls_239-711    N    0.81567993    0.74566003    0.76617993    -0.31320000
opls_750-712    N    0.24576009    0.90666003    0.17839994    -0.34110000
opls_750-713    N    0.34561995    0.62946987    0.23707987    -0.34090000
opls_239-714    N    0.30138999    0.76631012    0.24607987    -0.31320000
opls_239-715    N    0.23382007    0.81567993    0.25433997    -0.31310000
opls_750-716    N    0.24576009    0.09333997    0.82160006    -0.34100000
opls_750-717    N    0.34561995    0.37053013    0.76292013    -0.34080000
opls_239-718    N    0.30138999    0.23368988    0.75392013    -0.31320000
opls_239-719    N    0.23382007    0.18432007    0.74566003    -0.31320000
opls_750-720    N    0.75423991    0.09333997    0.17839994    -0.34100000
opls_750-721    N    0.65438005    0.37053013    0.23707987    -0.34080000
opls_239-722    N    0.69861001    0.23368988    0.24607987    -0.31290000
opls_239-723    N    0.76617993    0.18432007    0.25433997    -0.31320000
opls_750-724    N    0.75423991    0.90666003    0.82160006    -0.34100000
opls_750-725    N    0.65438005    0.62946987    0.76292013    -0.34090000
opls_239-726    N    0.69861001    0.76631012    0.75392013    -0.31320000
opls_239-727    N    0.76617993    0.81567993    0.74566003    -0.31320000
opls_750-728    N    0.17839994    0.75423991    0.09333997    -0.34110000
opls_750-729    N    0.23707987    0.65438005    0.37053013    -0.34090000
opls_239-730    N    0.24607987    0.69861001    0.23368988    -0.31320000
opls_239-731    N    0.25433997    0.76617993    0.18432007    -0.31320000
opls_750-732    N    0.82160006    0.75423991    0.90666003    -0.34110000
opls_750-733    N    0.76292013    0.65438005    0.62946987    -0.34080000
opls_239-734    N    0.75392013    0.69861001    0.76631012    -0.31320000
opls_239-735    N    0.74566003    0.76617993    0.81567993    -0.31310000
opls_750-736    N    0.17839994    0.24576009    0.90666003    -0.34100000
opls_750-737    N    0.23707987    0.34561995    0.62946987    -0.34090000
opls_239-738    N    0.24607987    0.30138999    0.76631012    -0.31320000
opls_239-739    N    0.25433997    0.23382007    0.81567993    -0.31290000
opls_750-740    N    0.82160006    0.24576009    0.09333997    -0.34110000
opls_750-741    N    0.76292013    0.34561995    0.37053013    -0.34080000
opls_239-742    N    0.75392013    0.30138999    0.23368988    -0.31310000
opls_239-743    N    0.74566003    0.23382007    0.18432007    -0.31320000
opls_144-744    H    0.28610006    0.56101990    0.71605003    0.10990000
opls_144-745    H    0.19195992    0.91523991    0.74409011    0.10420000
opls_146-746    H    0.46554008    0.65837010    0.69805003    0.12390000
opls_146-747    H    0.50023991    0.59785986    0.69992013    0.12110000
opls_146-748    H    0.43821006    0.56564014    0.80065009    0.11640000
opls_146-749    H    0.40311995    0.62566003    0.79831012    0.11780000
opls_146-750    H    0.43123991    0.51438005    0.74835986    0.11650000
opls_146-751    H    0.58739994    0.53581012    0.70071006    0.11770000
opls_146-752    H    0.64281012    0.57718988    0.70756993    0.12170000
opls_146-753    H    0.58979989    0.63311001    0.80272001    0.12170000
opls_146-754    H    0.53461995    0.59048010    0.79705003    0.12180000
opls_524-755    H    0.19250995    0.74233002    0.80527004    0.11980000
opls_526-756    H    0.09025014    0.72516998    0.74029989    0.11920000
opls_525-757    H    0.12827999    0.71914014    0.68244002    0.12200000
opls_524-758    H    0.30138999    0.74068988    0.66328994    0.12520000
opls_526-759    H    0.21450995    0.71079989    0.58244997    0.11920000
opls_525-760    H    0.16744002    0.71059011    0.63387010    0.12200000
opls_144-761    H    0.71389994    0.43898010    0.71605003    0.10990000
opls_144-762    H    0.80804008    0.08476009    0.74409011    0.10420000
opls_146-763    H    0.53445992    0.34162990    0.69805003    0.12390000
opls_146-764    H    0.49976009    0.40214014    0.69992013    0.12120000
opls_146-765    H    0.56178994    0.43435986    0.80065009    0.11640000
opls_146-766    H    0.59688005    0.37433997    0.79831012    0.11770000
opls_146-767    H    0.56876009    0.48561995    0.74835986    0.11640000
opls_146-768    H    0.41260006    0.46418988    0.70071006    0.11770000
opls_146-769    H    0.35718988    0.42281012    0.70756993    0.12180000
opls_146-770    H    0.41020011    0.36688999    0.80272001    0.12170000
opls_146-771    H    0.46538005    0.40951990    0.79705003    0.12170000
opls_524-772    H    0.80749005    0.25766998    0.80527004    0.11980000
opls_526-773    H    0.90974986    0.27483002    0.74029989    0.11920000
opls_525-774    H    0.87172001    0.28085986    0.68244002    0.12200000
opls_524-775    H    0.69861001    0.25931012    0.66328994    0.12520000
opls_526-776    H    0.78549005    0.28920011    0.58244997    0.11920000
opls_525-777    H    0.83255998    0.28940989    0.63387010    0.12200000
opls_144-778    H    0.71389994    0.56101990    0.28394997    0.10990000
opls_144-779    H    0.80804008    0.91523991    0.25590989    0.10420000
opls_146-780    H    0.53445992    0.65837010    0.30194997    0.12390000
opls_146-781    H    0.49976009    0.59785986    0.30007987    0.12110000
opls_146-782    H    0.56178994    0.56564014    0.19934991    0.11640000
opls_146-783    H    0.59688005    0.62566003    0.20168988    0.11790000
opls_146-784    H    0.56876009    0.51438005    0.25164014    0.11640000
opls_146-785    H    0.41260006    0.53581012    0.29928994    0.11770000
opls_146-786    H    0.35718988    0.57718988    0.29243007    0.12170000
opls_146-787    H    0.41020011    0.63311001    0.19727999    0.12170000
opls_146-788    H    0.46538005    0.59048010    0.20294997    0.12170000
opls_524-789    H    0.80749005    0.74233002    0.19472996    0.11990000
opls_526-790    H    0.90974986    0.72516998    0.25970011    0.11930000
opls_525-791    H    0.87172001    0.71914014    0.31755998    0.12200000
opls_524-792    H    0.69861001    0.74068988    0.33671006    0.12530000
opls_526-793    H    0.78549005    0.71079989    0.41755003    0.11920000
opls_525-794    H    0.83255998    0.71059011    0.36612990    0.12200000
opls_144-795    H    0.28610006    0.43898010    0.28394997    0.10990000
opls_144-796    H    0.19195992    0.08476009    0.25590989    0.10420000
opls_146-797    H    0.46554008    0.34162990    0.30194997    0.12390000
opls_146-798    H    0.50023991    0.40214014    0.30007987    0.12130000
opls_146-799    H    0.43821006    0.43435986    0.19934991    0.11640000
opls_146-800    H    0.40311995    0.37433997    0.20168988    0.11770000
opls_146-801    H    0.43123991    0.48561995    0.25164014    0.11640000
opls_146-802    H    0.58739994    0.46418988    0.29928994    0.11770000
opls_146-803    H    0.64281012    0.42281012    0.29243007    0.12170000
opls_146-804    H    0.58979989    0.36688999    0.19727999    0.12170000
opls_146-805    H    0.53461995    0.40951990    0.20294997    0.12170000
opls_524-806    H    0.19250995    0.25766998    0.19472996    0.11980000
opls_526-807    H    0.09025014    0.27483002    0.25970011    0.11920000
opls_525-808    H    0.12827999    0.28085986    0.31755998    0.12200000
opls_524-809    H    0.30138999    0.25931012    0.33671006    0.12520000
opls_526-810    H    0.21450995    0.28920011    0.41755003    0.11920000
opls_525-811    H    0.16744002    0.28940989    0.36612990    0.12210000
opls_144-812    H    0.71605003    0.28610006    0.56101990    0.11000000
opls_144-813    H    0.74409011    0.19195992    0.91523991    0.10420000
opls_146-814    H    0.69805003    0.46554008    0.65837010    0.12400000
opls_146-815    H    0.69992013    0.50023991    0.59785986    0.12110000
opls_146-816    H    0.80065009    0.43821006    0.56564014    0.11640000
opls_146-817    H    0.79831012    0.40311995    0.62566003    0.11770000
opls_146-818    H    0.74835986    0.43123991    0.51438005    0.11640000
opls_146-819    H    0.70071006    0.58739994    0.53581012    0.11770000
opls_146-820    H    0.70756993    0.64281012    0.57718988    0.12170000
opls_146-821    H    0.80272001    0.58979989    0.63311001    0.12170000
opls_146-822    H    0.79705003    0.53461995    0.59048010    0.12180000
opls_524-823    H    0.80527004    0.19250995    0.74233002    0.11980000
opls_526-824    H    0.74029989    0.09025014    0.72516998    0.11920000
opls_525-825    H    0.68244002    0.12827999    0.71914014    0.12200000
opls_524-826    H    0.66328994    0.30138999    0.74068988    0.12530000
opls_526-827    H    0.58244997    0.21450995    0.71079989    0.11920000
opls_525-828    H    0.63387010    0.16744002    0.71059011    0.12200000
opls_144-829    H    0.71605003    0.71389994    0.43898010    0.10990000
opls_144-830    H    0.74409011    0.80804008    0.08476009    0.10420000
opls_146-831    H    0.69805003    0.53445992    0.34162990    0.12390000
opls_146-832    H    0.69992013    0.49976009    0.40214014    0.12120000
opls_146-833    H    0.80065009    0.56178994    0.43435986    0.11640000
opls_146-834    H    0.79831012    0.59688005    0.37433997    0.11770000
opls_146-835    H    0.74835986    0.56876009    0.48561995    0.11640000
opls_146-836    H    0.70071006    0.41260006    0.46418988    0.11770000
opls_146-837    H    0.70756993    0.35718988    0.42281012    0.12170000
opls_146-838    H    0.80272001    0.41020011    0.36688999    0.12170000
opls_146-839    H    0.79705003    0.46538005    0.40951990    0.12180000
opls_524-840    H    0.80527004    0.80749005    0.25766998    0.11980000
opls_526-841    H    0.74029989    0.90974986    0.27483002    0.11920000
opls_525-842    H    0.68244002    0.87172001    0.28085986    0.12200000
opls_524-843    H    0.66328994    0.69861001    0.25931012    0.12520000
opls_526-844    H    0.58244997    0.78549005    0.28920011    0.11930000
opls_525-845    H    0.63387010    0.83255998    0.28940989    0.12200000
opls_144-846    H    0.28394997    0.71389994    0.56101990    0.10990000
opls_144-847    H    0.25590989    0.80804008    0.91523991    0.10420000
opls_146-848    H    0.30194997    0.53445992    0.65837010    0.12390000
opls_146-849    H    0.30007987    0.49976009    0.59785986    0.12110000
opls_146-850    H    0.19934991    0.56178994    0.56564014    0.11640000
opls_146-851    H    0.20168988    0.59688005    0.62566003    0.11770000
opls_146-852    H    0.25164014    0.56876009    0.51438005    0.11640000
opls_146-853    H    0.29928994    0.41260006    0.53581012    0.11770000
opls_146-854    H    0.29243007    0.35718988    0.57718988    0.12170000
opls_146-855    H    0.19727999    0.41020011    0.63311001    0.12170000
opls_146-856    H    0.20294997    0.46538005    0.59048010    0.12170000
opls_524-857    H    0.19472996    0.80749005    0.74233002    0.11980000
opls_526-858    H    0.25970011    0.90974986    0.72516998    0.11920000
opls_525-859    H    0.31755998    0.87172001    0.71914014    0.12200000
opls_524-860    H    0.33671006    0.69861001    0.74068988    0.12520000
opls_526-861    H    0.41755003    0.78549005    0.71079989    0.11920000
opls_525-862    H    0.36612990    0.83255998    0.71059011    0.12200000
opls_144-863    H    0.28394997    0.28610006    0.43898010    0.10990000
opls_144-864    H    0.25590989    0.19195992    0.08476009    0.10420000
opls_146-865    H    0.30194997    0.46554008    0.34162990    0.12390000
opls_146-866    H    0.30007987    0.50023991    0.40214014    0.12110000
opls_146-867    H    0.19934991    0.43821006    0.43435986    0.11640000
opls_146-868    H    0.20168988    0.40311995    0.37433997    0.11770000
opls_146-869    H    0.25164014    0.43123991    0.48561995    0.11640000
opls_146-870    H    0.29928994    0.58739994    0.46418988    0.11770000
opls_146-871    H    0.29243007    0.64281012    0.42281012    0.12170000
opls_146-872    H    0.19727999    0.58979989    0.36688999    0.12170000
opls_146-873    H    0.20294997    0.53461995    0.40951990    0.12170000
opls_524-874    H    0.19472996    0.19250995    0.25766998    0.11980000
opls_526-875    H    0.25970011    0.09025014    0.27483002    0.11920000
opls_525-876    H    0.31755998    0.12827999    0.28085986    0.12200000
opls_524-877    H    0.33671006    0.30138999    0.25931012    0.12520000
opls_526-878    H    0.41755003    0.21450995    0.28920011    0.11920000
opls_525-879    H    0.36612990    0.16744002    0.28940989    0.12200000
opls_144-880    H    0.56101990    0.28394997    0.71389994    0.10990000
opls_144-881    H    0.91523991    0.25590989    0.80804008    0.10420000
opls_146-882    H    0.65837010    0.30194997    0.53445992    0.12390000
opls_146-883    H    0.59785986    0.30007987    0.49976009    0.12110000
opls_146-884    H    0.56564014    0.19934991    0.56178994    0.11640000
opls_146-885    H    0.62566003    0.20168988    0.59688005    0.11770000
opls_146-886    H    0.51438005    0.25164014    0.56876009    0.11640000
opls_146-887    H    0.53581012    0.29928994    0.41260006    0.11770000
opls_146-888    H    0.57718988    0.29243007    0.35718988    0.12170000
opls_146-889    H    0.63311001    0.19727999    0.41020011    0.12170000
opls_146-890    H    0.59048010    0.20294997    0.46538005    0.12180000
opls_524-891    H    0.74233002    0.19472996    0.80749005    0.11980000
opls_526-892    H    0.72516998    0.25970011    0.90974986    0.11920000
opls_525-893    H    0.71914014    0.31755998    0.87172001    0.12200000
opls_524-894    H    0.74068988    0.33671006    0.69861001    0.12520000
opls_526-895    H    0.71079989    0.41755003    0.78549005    0.11930000
opls_525-896    H    0.71059011    0.36612990    0.83255998    0.12200000
opls_144-897    H    0.43898010    0.28394997    0.28610006    0.10990000
opls_144-898    H    0.08476009    0.25590989    0.19195992    0.10430000
opls_146-899    H    0.34162990    0.30194997    0.46554008    0.12390000
opls_146-900    H    0.40214014    0.30007987    0.50023991    0.12110000
opls_146-901    H    0.43435986    0.19934991    0.43821006    0.11640000
opls_146-902    H    0.37433997    0.20168988    0.40311995    0.11770000
opls_146-903    H    0.48561995    0.25164014    0.43123991    0.11640000
opls_146-904    H    0.46418988    0.29928994    0.58739994    0.11770000
opls_146-905    H    0.42281012    0.29243007    0.64281012    0.12170000
opls_146-906    H    0.36688999    0.19727999    0.58979989    0.12170000
opls_146-907    H    0.40951990    0.20294997    0.53461995    0.12170000
opls_524-908    H    0.25766998    0.19472996    0.19250995    0.11980000
opls_526-909    H    0.27483002    0.25970011    0.09025014    0.11920000
opls_525-910    H    0.28085986    0.31755998    0.12827999    0.12200000
opls_524-911    H    0.25931012    0.33671006    0.30138999    0.12520000
opls_526-912    H    0.28920011    0.41755003    0.21450995    0.11920000
opls_525-913    H    0.28940989    0.36612990    0.16744002    0.12210000
opls_144-914    H    0.56101990    0.71605003    0.28610006    0.10990000
opls_144-915    H    0.91523991    0.74409011    0.19195992    0.10430000
opls_146-916    H    0.65837010    0.69805003    0.46554008    0.12390000
opls_146-917    H    0.59785986    0.69992013    0.50023991    0.12110000
opls_146-918    H    0.56564014    0.80065009    0.43821006    0.11640000
opls_146-919    H    0.62566003    0.79831012    0.40311995    0.11770000
opls_146-920    H    0.51438005    0.74835986    0.43123991    0.11640000
opls_146-921    H    0.53581012    0.70071006    0.58739994    0.11770000
opls_146-922    H    0.57718988    0.70756993    0.64281012    0.12180000
opls_146-923    H    0.63311001    0.80272001    0.58979989    0.12170000
opls_146-924    H    0.59048010    0.79705003    0.53461995    0.12170000
opls_524-925    H    0.74233002    0.80527004    0.19250995    0.11980000
opls_526-926    H    0.72516998    0.74029989    0.09025014    0.11920000
opls_525-927    H    0.71914014    0.68244002    0.12827999    0.12200000
opls_524-928    H    0.74068988    0.66328994    0.30138999    0.12520000
opls_526-929    H    0.71079989    0.58244997    0.21450995    0.11920000
opls_525-930    H    0.71059011    0.63387010    0.16744002    0.12200000
opls_144-931    H    0.43898010    0.71605003    0.71389994    0.11000000
opls_144-932    H    0.08476009    0.74409011    0.80804008    0.10420000
opls_146-933    H    0.34162990    0.69805003    0.53445992    0.12400000
opls_146-934    H    0.40214014    0.69992013    0.49976009    0.12110000
opls_146-935    H    0.43435986    0.80065009    0.56178994    0.11640000
opls_146-936    H    0.37433997    0.79831012    0.59688005    0.11770000
opls_146-937    H    0.48561995    0.74835986    0.56876009    0.11640000
opls_146-938    H    0.46418988    0.70071006    0.41260006    0.11770000
opls_146-939    H    0.42281012    0.70756993    0.35718988    0.12170000
opls_146-940    H    0.36688999    0.80272001    0.41020011    0.12170000
opls_146-941    H    0.40951990    0.79705003    0.46538005    0.12180000
opls_524-942    H    0.25766998    0.80527004    0.80749005    0.11980000
opls_526-943    H    0.27483002    0.74029989    0.90974986    0.11920000
opls_525-944    H    0.28085986    0.68244002    0.87172001    0.12200000
opls_524-945    H    0.25931012    0.66328994    0.69861001    0.12520000
opls_526-946    H    0.28920011    0.58244997    0.78549005    0.11920000
opls_525-947    H    0.28940989    0.63387010    0.83255998    0.12200000
opls_144-948    H    0.78610006    0.06101990    0.21605003    0.10990000
opls_144-949    H    0.69195992    0.41523991    0.24409011    0.10420000
opls_146-950    H    0.96554008    0.15837010    0.19805003    0.12390000
opls_146-951    H    0.00023991    0.09785986    0.19992013    0.12120000
opls_146-952    H    0.93821006    0.06564014    0.30065009    0.11640000
opls_146-953    H    0.90311995    0.12566003    0.29831012    0.11770000
opls_146-954    H    0.93123991    0.01438005    0.24835986    0.11640000
opls_146-955    H    0.08739994    0.03581012    0.20071006    0.11770000
opls_146-956    H    0.14281012    0.07718988    0.20756993    0.12170000
opls_146-957    H    0.08979989    0.13311001    0.30272001    0.12170000
opls_146-958    H    0.03461995    0.09048010    0.29705003    0.12170000
opls_524-959    H    0.69250995    0.24233002    0.30527004    0.11980000
opls_526-960    H    0.59024986    0.22516998    0.24029989    0.11920000
opls_525-961    H    0.62827999    0.21914014    0.18244002    0.12210000
opls_524-962    H    0.80138999    0.24068988    0.16328994    0.12520000
opls_526-963    H    0.71450995    0.21079989    0.08244997    0.11920000
opls_525-964    H    0.66744002    0.21059011    0.13387010    0.12200000
opls_144-965    H    0.21389994    0.93898010    0.21605003    0.10990000
opls_144-966    H    0.30804008    0.58476009    0.24409011    0.10430000
opls_146-967    H    0.03445992    0.84162990    0.19805003    0.12390000
opls_146-968    H    0.99976009    0.90214014    0.19992013    0.12110000
opls_146-969    H    0.06178994    0.93435986    0.30065009    0.11640000
opls_146-970    H    0.09688005    0.87433997    0.29831012    0.11770000
opls_146-971    H    0.06876009    0.98561995    0.24835986    0.11640000
opls_146-972    H    0.91260006    0.96418988    0.20071006    0.11770000
opls_146-973    H    0.85718988    0.92281012    0.20756993    0.12180000
opls_146-974    H    0.91020011    0.86688999    0.30272001    0.12170000
opls_146-975    H    0.96538005    0.90951990    0.29705003    0.12170000
opls_524-976    H    0.30749005    0.75766998    0.30527004    0.11980000
opls_526-977    H    0.40975014    0.77483002    0.24029989    0.11920000
opls_525-978    H    0.37172001    0.78085986    0.18244002    0.12200000
opls_524-979    H    0.19861001    0.75931012    0.16328994    0.12520000
opls_526-980    H    0.28549005    0.78920011    0.08244997    0.11920000
opls_525-981    H    0.33255998    0.78940989    0.13387010    0.12200000
opls_144-982    H    0.21389994    0.06101990    0.78394997    0.10990000
opls_144-983    H    0.30804008    0.41523991    0.75590989    0.10420000
opls_146-984    H    0.03445992    0.15837010    0.80194997    0.12400000
opls_146-985    H    0.99976009    0.09785986    0.80007987    0.12110000
opls_146-986    H    0.06178994    0.06564014    0.69934991    0.11650000
opls_146-987    H    0.09688005    0.12566003    0.70168988    0.11770000
opls_146-988    H    0.06876009    0.01438005    0.75164014    0.11640000
opls_146-989    H    0.91260006    0.03581012    0.79928994    0.11770000
opls_146-990    H    0.85718988    0.07718988    0.79243007    0.12170000
opls_146-991    H    0.91020011    0.13311001    0.69727999    0.12170000
opls_146-992    H    0.96538005    0.09048010    0.70294997    0.12170000
opls_524-993    H    0.30749005    0.24233002    0.69472996    0.11980000
opls_526-994    H    0.40975014    0.22516998    0.75970011    0.11920000
opls_525-995    H    0.37172001    0.21914014    0.81755998    0.12200000
opls_524-996    H    0.19861001    0.24068988    0.83671006    0.12530000
opls_526-997    H    0.28549005    0.21079989    0.91755003    0.11920000
opls_525-998    H    0.33255998    0.21059011    0.86612990    0.12200000
opls_144-999    H    0.78610006    0.93898010    0.78394997    0.10990000
opls_144-1000    H    0.69195992    0.58476009    0.75590989    0.10420000
opls_146-1001    H    0.96554008    0.84162990    0.80194997    0.12390000
opls_146-1002    H    0.00023991    0.90214014    0.80007987    0.12110000
opls_146-1003    H    0.93821006    0.93435986    0.69934991    0.11640000
opls_146-1004    H    0.90311995    0.87433997    0.70168988    0.11770000
opls_146-1005    H    0.93123991    0.98561995    0.75164014    0.11640000
opls_146-1006    H    0.08739994    0.96418988    0.79928994    0.11770000
opls_146-1007    H    0.14281012    0.92281012    0.79243007    0.12170000
opls_146-1008    H    0.08979989    0.86688999    0.69727999    0.12170000
opls_146-1009    H    0.03461995    0.90951990    0.70294997    0.12170000
opls_524-1010    H    0.69250995    0.75766998    0.69472996    0.11990000
opls_526-1011    H    0.59024986    0.77483002    0.75970011    0.11920000
opls_525-1012    H    0.62827999    0.78085986    0.81755998    0.12210000
opls_524-1013    H    0.80138999    0.75931012    0.83671006    0.12520000
opls_526-1014    H    0.71450995    0.78920011    0.91755003    0.11920000
opls_525-1015    H    0.66744002    0.78940989    0.86612990    0.12210000
opls_144-1016    H    0.21605003    0.78610006    0.06101990    0.10990000
opls_144-1017    H    0.24409011    0.69195992    0.41523991    0.10420000
opls_146-1018    H    0.19805003    0.96554008    0.15837010    0.12390000
opls_146-1019    H    0.19992013    0.00023991    0.09785986    0.12110000
opls_146-1020    H    0.30065009    0.93821006    0.06564014    0.11640000
opls_146-1021    H    0.29831012    0.90311995    0.12566003    0.11770000
opls_146-1022    H    0.24835986    0.93123991    0.01438005    0.11640000
opls_146-1023    H    0.20071006    0.08739994    0.03581012    0.11770000
opls_146-1024    H    0.20756993    0.14281012    0.07718988    0.12170000
opls_146-1025    H    0.30272001    0.08979989    0.13311001    0.12170000
opls_146-1026    H    0.29705003    0.03461995    0.09048010    0.12170000
opls_524-1027    H    0.30527004    0.69250995    0.24233002    0.11980000
opls_526-1028    H    0.24029989    0.59024986    0.22516998    0.11920000
opls_525-1029    H    0.18244002    0.62827999    0.21914014    0.12210000
opls_524-1030    H    0.16328994    0.80138999    0.24068988    0.12530000
opls_526-1031    H    0.08244997    0.71450995    0.21079989    0.11920000
opls_525-1032    H    0.13387010    0.66744002    0.21059011    0.12200000
opls_144-1033    H    0.21605003    0.21389994    0.93898010    0.10990000
opls_144-1034    H    0.24409011    0.30804008    0.58476009    0.10420000
opls_146-1035    H    0.19805003    0.03445992    0.84162990    0.12390000
opls_146-1036    H    0.19992013    0.99976009    0.90214014    0.12110000
opls_146-1037    H    0.30065009    0.06178994    0.93435986    0.11640000
opls_146-1038    H    0.29831012    0.09688005    0.87433997    0.11770000
opls_146-1039    H    0.24835986    0.06876009    0.98561995    0.11640000
opls_146-1040    H    0.20071006    0.91260006    0.96418988    0.11770000
opls_146-1041    H    0.20756993    0.85718988    0.92281012    0.12170000
opls_146-1042    H    0.30272001    0.91020011    0.86688999    0.12170000
opls_146-1043    H    0.29705003    0.96538005    0.90951990    0.12180000
opls_524-1044    H    0.30527004    0.30749005    0.75766998    0.11990000
opls_526-1045    H    0.24029989    0.40975014    0.77483002    0.11920000
opls_525-1046    H    0.18244002    0.37172001    0.78085986    0.12200000
opls_524-1047    H    0.16328994    0.19861001    0.75931012    0.12520000
opls_526-1048    H    0.08244997    0.28549005    0.78920011    0.11920000
opls_525-1049    H    0.13387010    0.33255998    0.78940989    0.12200000
opls_144-1050    H    0.78394997    0.21389994    0.06101990    0.11000000
opls_144-1051    H    0.75590989    0.30804008    0.41523991    0.10420000
opls_146-1052    H    0.80194997    0.03445992    0.15837010    0.12390000
opls_146-1053    H    0.80007987    0.99976009    0.09785986    0.12110000
opls_146-1054    H    0.69934991    0.06178994    0.06564014    0.11640000
opls_146-1055    H    0.70168988    0.09688005    0.12566003    0.11770000
opls_146-1056    H    0.75164014    0.06876009    0.01438005    0.11640000
opls_146-1057    H    0.79928994    0.91260006    0.03581012    0.11770000
opls_146-1058    H    0.79243007    0.85718988    0.07718988    0.12170000
opls_146-1059    H    0.69727999    0.91020011    0.13311001    0.12170000
opls_146-1060    H    0.70294997    0.96538005    0.09048010    0.12170000
opls_524-1061    H    0.69472996    0.30749005    0.24233002    0.11980000
opls_526-1062    H    0.75970011    0.40975014    0.22516998    0.11920000
opls_525-1063    H    0.81755998    0.37172001    0.21914014    0.12200000
opls_524-1064    H    0.83671006    0.19861001    0.24068988    0.12520000
opls_526-1065    H    0.91755003    0.28549005    0.21079989    0.11920000
opls_525-1066    H    0.86612990    0.33255998    0.21059011    0.12200000
opls_144-1067    H    0.78394997    0.78610006    0.93898010    0.10990000
opls_144-1068    H    0.75590989    0.69195992    0.58476009    0.10420000
opls_146-1069    H    0.80194997    0.96554008    0.84162990    0.12390000
opls_146-1070    H    0.80007987    0.00023991    0.90214014    0.12110000
opls_146-1071    H    0.69934991    0.93821006    0.93435986    0.11640000
opls_146-1072    H    0.70168988    0.90311995    0.87433997    0.11770000
opls_146-1073    H    0.75164014    0.93123991    0.98561995    0.11640000
opls_146-1074    H    0.79928994    0.08739994    0.96418988    0.11770000
opls_146-1075    H    0.79243007    0.14281012    0.92281012    0.12170000
opls_146-1076    H    0.69727999    0.08979989    0.86688999    0.12170000
opls_146-1077    H    0.70294997    0.03461995    0.90951990    0.12170000
opls_524-1078    H    0.69472996    0.69250995    0.75766998    0.11980000
opls_526-1079    H    0.75970011    0.59024986    0.77483002    0.11920000
opls_525-1080    H    0.81755998    0.62827999    0.78085986    0.12210000
opls_524-1081    H    0.83671006    0.80138999    0.75931012    0.12520000
opls_526-1082    H    0.91755003    0.71450995    0.78920011    0.11920000
opls_525-1083    H    0.86612990    0.66744002    0.78940989    0.12200000
opls_144-1084    H    0.06101990    0.78394997    0.21389994    0.10990000
opls_144-1085    H    0.41523991    0.75590989    0.30804008    0.10420000
opls_146-1086    H    0.15837010    0.80194997    0.03445992    0.12390000
opls_146-1087    H    0.09785986    0.80007987    0.99976009    0.12110000
opls_146-1088    H    0.06564014    0.69934991    0.06178994    0.11650000
opls_146-1089    H    0.12566003    0.70168988    0.09688005    0.11770000
opls_146-1090    H    0.01438005    0.75164014    0.06876009    0.11640000
opls_146-1091    H    0.03581012    0.79928994    0.91260006    0.11780000
opls_146-1092    H    0.07718988    0.79243007    0.85718988    0.12170000
opls_146-1093    H    0.13311001    0.69727999    0.91020011    0.12180000
opls_146-1094    H    0.09048010    0.70294997    0.96538005    0.12170000
opls_524-1095    H    0.24233002    0.69472996    0.30749005    0.11980000
opls_526-1096    H    0.22516998    0.75970011    0.40975014    0.11920000
opls_525-1097    H    0.21914014    0.81755998    0.37172001    0.12200000
opls_524-1098    H    0.24068988    0.83671006    0.19861001    0.12520000
opls_526-1099    H    0.21079989    0.91755003    0.28549005    0.11920000
opls_525-1100    H    0.21059011    0.86612990    0.33255998    0.12200000
opls_144-1101    H    0.93898010    0.78394997    0.78610006    0.10990000
opls_144-1102    H    0.58476009    0.75590989    0.69195992    0.10420000
opls_146-1103    H    0.84162990    0.80194997    0.96554008    0.12390000
opls_146-1104    H    0.90214014    0.80007987    0.00023991    0.12110000
opls_146-1105    H    0.93435986    0.69934991    0.93821006    0.11640000
opls_146-1106    H    0.87433997    0.70168988    0.90311995    0.11770000
opls_146-1107    H    0.98561995    0.75164014    0.93123991    0.11640000
opls_146-1108    H    0.96418988    0.79928994    0.08739994    0.11770000
opls_146-1109    H    0.92281012    0.79243007    0.14281012    0.12170000
opls_146-1110    H    0.86688999    0.69727999    0.08979989    0.12170000
opls_146-1111    H    0.90951990    0.70294997    0.03461995    0.12180000
opls_524-1112    H    0.75766998    0.69472996    0.69250995    0.11980000
opls_526-1113    H    0.77483002    0.75970011    0.59024986    0.11930000
opls_525-1114    H    0.78085986    0.81755998    0.62827999    0.12200000
opls_524-1115    H    0.75931012    0.83671006    0.80138999    0.12520000
opls_526-1116    H    0.78920011    0.91755003    0.71450995    0.11920000
opls_525-1117    H    0.78940989    0.86612990    0.66744002    0.12200000
opls_144-1118    H    0.06101990    0.21605003    0.78610006    0.10990000
opls_144-1119    H    0.41523991    0.24409011    0.69195992    0.10420000
opls_146-1120    H    0.15837010    0.19805003    0.96554008    0.12390000
opls_146-1121    H    0.09785986    0.19992013    0.00023991    0.12110000
opls_146-1122    H    0.06564014    0.30065009    0.93821006    0.11640000
opls_146-1123    H    0.12566003    0.29831012    0.90311995    0.11780000
opls_146-1124    H    0.01438005    0.24835986    0.93123991    0.11640000
opls_146-1125    H    0.03581012    0.20071006    0.08739994    0.11770000
opls_146-1126    H    0.07718988    0.20756993    0.14281012    0.12170000
opls_146-1127    H    0.13311001    0.30272001    0.08979989    0.12170000
opls_146-1128    H    0.09048010    0.29705003    0.03461995    0.12180000
opls_524-1129    H    0.24233002    0.30527004    0.69250995    0.11980000
opls_526-1130    H    0.22516998    0.24029989    0.59024986    0.11920000
opls_525-1131    H    0.21914014    0.18244002    0.62827999    0.12200000
opls_524-1132    H    0.24068988    0.16328994    0.80138999    0.12520000
opls_526-1133    H    0.21079989    0.08244997    0.71450995    0.11920000
opls_525-1134    H    0.21059011    0.13387010    0.66744002    0.12200000
opls_144-1135    H    0.93898010    0.21605003    0.21389994    0.11000000
opls_144-1136    H    0.58476009    0.24409011    0.30804008    0.10420000
opls_146-1137    H    0.84162990    0.19805003    0.03445992    0.12400000
opls_146-1138    H    0.90214014    0.19992013    0.99976009    0.12110000
opls_146-1139    H    0.93435986    0.30065009    0.06178994    0.11640000
opls_146-1140    H    0.87433997    0.29831012    0.09688005    0.11770000
opls_146-1141    H    0.98561995    0.24835986    0.06876009    0.11640000
opls_146-1142    H    0.96418988    0.20071006    0.91260006    0.11770000
opls_146-1143    H    0.92281012    0.20756993    0.85718988    0.12170000
opls_146-1144    H    0.86688999    0.30272001    0.91020011    0.12170000
opls_146-1145    H    0.90951990    0.29705003    0.96538005    0.12170000
opls_524-1146    H    0.75766998    0.30527004    0.30749005    0.11980000
opls_526-1147    H    0.77483002    0.24029989    0.40975014    0.11920000
opls_525-1148    H    0.78085986    0.18244002    0.37172001    0.12200000
opls_524-1149    H    0.75931012    0.16328994    0.19861001    0.12520000
opls_526-1150    H    0.78920011    0.08244997    0.28549005    0.11920000
opls_525-1151    H    0.78940989    0.13387010    0.33255998    0.12200000
F2_Ru6+2-1152    Ru    0.25770011    0.74229989    0.74229989    0.49570000
F2_Ru6+2-1153    Ru    0.74229989    0.25770011    0.74229989    0.49550000
F2_Ru6+2-1154    Ru    0.74229989    0.74229989    0.25770011    0.49540000
F2_Ru6+2-1155    Ru    0.25770011    0.25770011    0.25770011    0.49540000
F2_Ru6+2-1156    Ru    0.75770011    0.24229989    0.24229989    0.49550000
F2_Ru6+2-1157    Ru    0.24229989    0.75770011    0.24229989    0.49540000
F2_Ru6+2-1158    Ru    0.24229989    0.24229989    0.75770011    0.49540000
F2_Ru6+2-1159    Ru    0.75770011    0.75770011    0.75770011    0.49550000
