#======================================================================
# Crystal Data Generated By AuToFF
#----------------------------------------------------------------------

data_AuToFF_phase_1

_cell_length_a                         37.9922
_cell_length_b                         37.9922
_cell_length_c                         3.4659
_cell_angle_alpha                      90.00
_cell_angle_beta                       90.00
_cell_angle_gamma                      120.00
_symmetry_space_group_name_H-M_alt     'P 1'
_symmetry_space_group_IT_number        1

loop_
_space_group_symop_operation_xyz
   'x, y, z'

loop_
   _atom_site_label
   _atom_site_type_symbol
   _atom_site_fract_x
   _atom_site_fract_y
   _atom_site_fract_z
   _atom_site_charge
opls_700-0    C    0.42249006    0.59888014    0.50000000    0.12530000
opls_522-1    C    0.39910010    0.55630002    0.50000000    -0.16660000
opls_521-2    C    0.41771011    0.53252016    0.50000000    0.05790000
opls_521-3    C    0.48355989    0.59326987    0.50000000    0.05310000
opls_522-4    C    0.46482994    0.61689990    0.50000000    -0.16890000
opls_521-5    C    0.48078010    0.52447997    0.50000000    0.19060000
opls_522-6    C    0.52346003    0.54212012    0.50000000    -0.16730000
opls_522-7    C    0.54209995    0.51838007    0.50000000    -0.16730000
opls_142-8    C    0.40460994    0.62588015    0.50000000    -0.18230000
opls_142-9    C    0.36462015    0.61299013    0.50000000    -0.21460000
opls_642-10    C    0.34866002    0.64120009    0.50000000    0.34100000
opls_700-11    C    0.40111992    0.82361002    0.50000000    0.12530000
opls_522-12    C    0.44370006    0.84279992    0.50000000    -0.16660000
opls_521-13    C    0.46748015    0.88519008    0.50000000    0.05790000
opls_521-14    C    0.40673003    0.89029004    0.50000000    0.05310000
opls_522-15    C    0.38310002    0.84792997    0.50000000    -0.16890000
opls_521-16    C    0.47551993    0.95629990    0.50000000    0.19060000
opls_522-17    C    0.45788019    0.98134016    0.50000000    -0.16730000
opls_522-18    C    0.48162010    0.02371999    0.50000000    -0.16730000
opls_142-19    C    0.37412006    0.77873006    0.50000000    -0.18230000
opls_142-20    C    0.38700996    0.75163006    0.50000000    -0.21460000
opls_642-21    C    0.35880003    0.70746008    0.50000000    0.34100000
opls_700-22    C    0.17639016    0.57751014    0.50000000    0.12530000
opls_522-23    C    0.15720010    0.60090006    0.50000000    -0.16660000
opls_521-24    C    0.11481015    0.58229007    0.50000000    0.05790000
opls_521-25    C    0.10971008    0.51644008    0.50000000    0.05390000
opls_522-26    C    0.15207004    0.53517013    0.50000000    -0.16890000
opls_521-27    C    0.04369996    0.51922014    0.50000000    0.19060000
opls_522-28    C    0.01865994    0.47654003    0.50000000    -0.16730000
opls_522-29    C    0.97627995    0.45789994    0.50000000    -0.16730000
opls_142-30    C    0.22127015    0.59539010    0.50000000    -0.18230000
opls_142-31    C    0.24837004    0.63538012    0.50000000    -0.21460000
opls_642-32    C    0.29254011    0.65134014    0.50000000    0.34100000
opls_700-33    C    0.57750994    0.40111986    0.50000000    0.12530000
opls_522-34    C    0.60089990    0.44369998    0.50000000    -0.16660000
opls_521-35    C    0.58229004    0.46748015    0.50000000    0.05790000
opls_521-36    C    0.51644011    0.40673013    0.50000000    0.05310000
opls_522-37    C    0.53517006    0.38310010    0.50000000    -0.16890000
opls_521-38    C    0.51921990    0.47552003    0.50000000    0.19060000
opls_522-39    C    0.47653997    0.45787988    0.50000000    -0.16730000
opls_522-40    C    0.45790005    0.48161993    0.50000000    -0.16730000
opls_142-41    C    0.59539006    0.37411985    0.50000000    -0.18230000
opls_142-42    C    0.63537985    0.38700987    0.50000000    -0.21460000
opls_642-43    C    0.65133998    0.35879991    0.50000000    0.34100000
opls_700-44    C    0.59888008    0.17638998    0.50000000    0.12540000
opls_522-45    C    0.55629994    0.15720008    0.50000000    -0.16660000
opls_521-46    C    0.53251985    0.11480992    0.50000000    0.05790000
opls_521-47    C    0.59326997    0.10970996    0.50000000    0.05310000
opls_522-48    C    0.61689998    0.15207003    0.50000000    -0.16890000
opls_521-49    C    0.52448007    0.04370010    0.50000000    0.19060000
opls_522-50    C    0.54211996    0.01866014    0.50000000    -0.16720000
opls_522-51    C    0.51837990    0.97628001    0.50000000    -0.16720000
opls_142-52    C    0.62587994    0.22126994    0.50000000    -0.18230000
opls_142-53    C    0.61299004    0.24836994    0.50000000    -0.21460000
opls_642-54    C    0.64119997    0.29253992    0.50000000    0.34100000
opls_700-55    C    0.82360984    0.42248986    0.50000000    0.12530000
opls_522-56    C    0.84279990    0.39909994    0.50000000    -0.16660000
opls_521-57    C    0.88518985    0.41770993    0.50000000    0.05790000
opls_521-58    C    0.89028992    0.48355992    0.50000000    0.05390000
opls_522-59    C    0.84792996    0.46482987    0.50000000    -0.16890000
opls_521-60    C    0.95630004    0.48077986    0.50000000    0.19060000
opls_522-61    C    0.98134006    0.52345997    0.50000000    -0.16730000
opls_522-62    C    0.02372005    0.54210006    0.50000000    -0.16720000
opls_142-63    C    0.77872985    0.40460990    0.50000000    -0.18230000
opls_142-64    C    0.75162996    0.36461988    0.50000000    -0.21440000
opls_642-65    C    0.70745989    0.34865986    0.50000000    0.34110000
opls_239-66    N    0.46053993    0.55028006    0.50000000    -0.09510000
opls_641-67    N    0.69202003    0.37400011    0.50000000    -0.43340000
opls_239-68    N    0.44972001    0.91026013    0.50000000    -0.09500000
opls_641-69    N    0.62600005    0.31801997    0.50000000    -0.43940000
opls_239-70    N    0.08973995    0.53946012    0.50000000    -0.09510000
opls_641-71    N    0.68197992    0.30797992    0.50000000    -0.43930000
opls_239-72    N    0.53946007    0.44971994    0.50000000    -0.09510000
opls_641-73    N    0.30797997    0.62599989    0.50000000    -0.43340000
opls_239-74    N    0.55027999    0.08973987    0.50000000    -0.09510000
opls_641-75    N    0.37399995    0.68198003    0.50000000    -0.43940000
opls_239-76    N    0.91026005    0.46053988    0.50000000    -0.09500000
opls_641-77    N    0.31802008    0.69202008    0.50000000    -0.43940000
opls_525-78    H    0.36634993    0.54072994    0.50000000    0.11070000
opls_524-79    H    0.39752007    0.50020014    0.50000000    0.10520000
opls_524-80    H    0.51621992    0.60974992    0.50000000    0.10160000
opls_525-81    H    0.48373003    0.64969010    0.50000000    0.11320000
opls_525-82    H    0.54362993    0.57444986    0.50000000    0.09580000
opls_525-83    H    0.57475990    0.53479994    0.50000000    0.09580000
opls_144-84    H    0.42569007    0.65835000    0.50000000    0.11680000
opls_144-85    H    0.34225004    0.58110990    0.50000000    0.09200000
opls_525-86    H    0.45927002    0.82561992    0.50000000    0.11070000
opls_524-87    H    0.49979995    0.89731997    0.50000000    0.10530000
opls_524-88    H    0.39025002    0.90647011    0.50000000    0.10160000
opls_525-89    H    0.35031000    0.83404002    0.50000000    0.11320000
opls_525-90    H    0.42554993    0.96917988    0.50000000    0.09580000
opls_525-91    H    0.46520004    0.03995993    0.50000000    0.09580000
opls_144-92    H    0.34165003    0.76733994    0.50000000    0.11680000
opls_144-93    H    0.41889000    0.76114006    0.50000000    0.09200000
opls_525-94    H    0.17438004    0.63365014    0.50000000    0.11070000
opls_524-95    H    0.10267998    0.60247989    0.50000000    0.10520000
opls_524-96    H    0.09353006    0.48377996    0.50000000    0.10160000
opls_525-97    H    0.16595997    0.51626988    0.50000000    0.11320000
opls_525-98    H    0.03081999    0.45636995    0.50000000    0.09580000
opls_525-99    H    0.96004006    0.42524013    0.50000000    0.09580000
opls_144-100    H    0.23266016    0.57431005    0.50000000    0.11680000
opls_144-101    H    0.23885997    0.65775004    0.50000000    0.09200000
opls_525-102    H    0.63365007    0.45927006    0.50000000    0.11070000
opls_524-103    H    0.60247993    0.49979986    0.50000000    0.10520000
opls_524-104    H    0.48378008    0.39025008    0.50000000    0.10160000
opls_525-105    H    0.51626997    0.35030990    0.50000000    0.11330000
opls_525-106    H    0.45637007    0.42555014    0.50000000    0.09580000
opls_525-107    H    0.42524010    0.46520006    0.50000000    0.09580000
opls_144-108    H    0.57430993    0.34165000    0.50000000    0.11680000
opls_144-109    H    0.65774996    0.41889010    0.50000000    0.09200000
opls_525-110    H    0.54072998    0.17438008    0.50000000    0.11070000
opls_524-111    H    0.50020005    0.10268003    0.50000000    0.10520000
opls_524-112    H    0.60974998    0.09352989    0.50000000    0.10170000
opls_525-113    H    0.64969000    0.16595998    0.50000000    0.11320000
opls_525-114    H    0.57445007    0.03082012    0.50000000    0.09580000
opls_525-115    H    0.53479996    0.96004007    0.50000000    0.09580000
opls_144-116    H    0.65834997    0.23266006    0.50000000    0.11680000
opls_144-117    H    0.58111000    0.23885994    0.50000000    0.09200000
opls_525-118    H    0.82561996    0.36634986    0.50000000    0.11070000
opls_524-119    H    0.89732002    0.39752011    0.50000000    0.10530000
opls_524-120    H    0.90646994    0.51622004    0.50000000    0.10160000
opls_525-121    H    0.83404003    0.48373012    0.50000000    0.11320000
opls_525-122    H    0.96918001    0.54363005    0.50000000    0.09580000
opls_525-123    H    0.03995994    0.57475987    0.50000000    0.09580000
opls_144-124    H    0.76733984    0.42568995    0.50000000    0.11680000
opls_144-125    H    0.76114003    0.34224996    0.50000000    0.09200000
