#======================================================================
# Crystal Data Generated By AuToFF
#----------------------------------------------------------------------

data_AuToFF_phase_1

_cell_length_a                         62.5000
_cell_length_b                         62.7500
_cell_length_c                         37.7900
_cell_angle_alpha                      90.00
_cell_angle_beta                       90.00
_cell_angle_gamma                      90.00
_symmetry_space_group_name_H-M_alt     'P 1'
_symmetry_space_group_IT_number        1

loop_
_space_group_symop_operation_xyz
   'x, y, z'

loop_
   _atom_site_label
   _atom_site_type_symbol
   _atom_site_fract_x
   _atom_site_fract_y
   _atom_site_fract_z
   _atom_site_charge
opls_700-0    C    0.56887008    0.98462008    0.56122996    0.06390000
opls_145-1    C    0.58197008    0.97528000    0.58716989    -0.12780000
opls_145-2    C    0.60418000    0.97737004    0.58540990    -0.16610000
opls_145-3    C    0.61370000    0.98913992    0.55817994    0.18800000
opls_145-4    C    0.60066000    0.99852000    0.53207992    -0.18000000
opls_145-5    C    0.57842992    0.99604000    0.53340990    -0.13250000
opls_142-6    C    0.64769008    0.00544000    0.54263006    0.06880000
opls_700-7    C    0.67126992    0.00440000    0.54206007    0.06040000
opls_145-8    C    0.68208000    0.98501004    0.54721011    -0.12750000
opls_145-9    C    0.68316992    0.02297992    0.53601006    -0.12220000
opls_145-10    C    0.70440992    0.98425004    0.54616989    -0.17060000
opls_916-11    C    0.71640000    0.00289004    0.54051998    0.16010000
opls_145-12    C    0.70552000    0.02229004    0.53558005    -0.17170000
opls_145-13    C    0.53588000    0.01868000    0.56270998    -0.12360000
opls_700-14    C    0.52992992    0.99709004    0.56207012    0.02940000
opls_700-15    C    0.54545008    0.98061992    0.56170998    0.02940000
opls_700-16    C    0.98692992    0.67302008    0.04859989    0.05520000
opls_145-17    C    0.00758000    0.68149004    0.05284996    -0.13250000
opls_145-18    C    0.96968000    0.68690996    0.04313998    -0.11950000
opls_145-19    C    0.01091008    0.70352000    0.05102011    -0.17920000
opls_916-20    C    0.99361008    0.71745004    0.04536994    0.15960000
opls_145-21    C    0.97295008    0.70889992    0.04183011    -0.16970000
opls_145-22    C    0.96164992    0.77897004    0.57513998    -0.12010000
opls_700-23    C    0.95985008    0.77317004    0.61088992    0.06020000
opls_145-24    C    0.97184000    0.75589992    0.62360995    -0.12450000
opls_142-25    C    0.94590000    0.78517004    0.63527997    0.06880000
opls_145-26    C    0.92548000    0.81726008    0.64825007    0.18820000
opls_145-27    C    0.92595008    0.83928000    0.64245012    -0.16600000
opls_145-28    C    0.91349008    0.85297004    0.66306007    -0.12470000
opls_700-29    C    0.90008000    0.84476000    0.68953003    0.06090000
opls_145-30    C    0.89894000    0.82260000    0.69445012    -0.12970000
opls_145-31    C    0.91168000    0.80893004    0.67420005    -0.17490000
opls_700-32    C    0.88666000    0.85940000    0.71093993    0.02980000
opls_700-33    C    0.88750992    0.86005004    0.74836994    0.03300000
opls_145-34    C    0.90222000    0.84773992    0.76783011    -0.12490000
opls_145-35    C    0.98587008    0.74496000    0.60122996    -0.17190000
opls_916-36    C    0.98790000    0.75089992    0.56551998    0.15960000
opls_145-37    C    0.97542000    0.76785004    0.55264991    -0.16950000
opls_700-38    C    0.09732000    0.15308000    0.88329002    0.06090000
opls_145-39    C    0.08326992    0.14430996    0.90832998    -0.12490000
opls_145-40    C    0.07068000    0.15757004    0.92946997    -0.17400000
opls_145-41    C    0.07168000    0.17973992    0.92573009    0.18800000
opls_145-42    C    0.08602000    0.18860000    0.90105001    -0.17660000
opls_145-43    C    0.09882992    0.17533992    0.88019000    -0.12990000
opls_142-44    C    0.05260000    0.21209004    0.94207992    0.06910000
opls_700-45    C    0.03962000    0.22400000    0.96805001    0.06340000
opls_145-46    C    0.03624992    0.21617004    0.00243001    -0.12780000
opls_145-47    C    0.03064992    0.24366996    0.95845991    -0.12130000
opls_145-48    C    0.02424992    0.22789004    0.02679995    -0.17010000
opls_916-49    C    0.01522000    0.24756000    0.01721011    0.16470000
opls_145-50    C    0.01846000    0.25528000    0.98273009    -0.17060000
opls_145-51    C    0.09729008    0.15186996    0.80473988    -0.12220000
opls_700-52    C    0.11145008    0.13913004    0.82448002    0.03230000
opls_700-53    C    0.11126992    0.13892000    0.86194999    0.02920000
opls_700-54    C    0.48810000    0.06926996    0.56007992    0.06530000
opls_145-55    C    0.48011008    0.08166996    0.53208997    -0.12490000
opls_145-56    C    0.48318992    0.10369004    0.53170998    -0.16940000
opls_145-57    C    0.49434000    0.11373004    0.55937999    0.18790000
opls_145-58    C    0.50292000    0.10130008    0.58675999    -0.17060000
opls_145-59    C    0.49946000    0.07925992    0.58753003    -0.13290000
opls_142-60    C    0.48298000    0.14985004    0.54863006    0.06950000
opls_145-61    C    0.52057008    0.03474996    0.56191003    -0.11300000
opls_700-62    C    0.49862000    0.02994008    0.56206007    0.03110000
opls_700-63    C    0.48290000    0.04620000    0.56155994    0.02980000
opls_145-64    C    0.78034000    0.03660000    0.07434004    -0.12640000
opls_700-65    C    0.77395008    0.03881004    0.10979995    0.05840000
opls_145-66    C    0.75592000    0.02762008    0.12177004    -0.12490000
opls_142-67    C    0.78588992    0.05254996    0.13459010    0.06940000
opls_145-68    C    0.81784000    0.07312000    0.14821990    0.18790000
opls_145-69    C    0.84000000    0.07297992    0.14270998    -0.17150000
opls_145-70    C    0.85342992    0.08566996    0.16340011    -0.12450000
opls_700-71    C    0.84487008    0.09894996    0.18973988    0.06110000
opls_145-72    C    0.82259008    0.09969004    0.19445012    -0.13120000
opls_145-73    C    0.80914000    0.08677004    0.17406007    -0.17920000
opls_700-74    C    0.85924992    0.11272000    0.21106007    0.03280000
opls_700-75    C    0.85992000    0.11205004    0.24851998    0.02960000
opls_145-76    C    0.84772000    0.09737004    0.26817994    -0.12660000
opls_145-77    C    0.74464992    0.01418996    0.09888013    -0.17060000
opls_916-78    C    0.75102992    0.01193992    0.06341995    0.15940000
opls_145-79    C    0.76892992    0.02338008    0.05136994    -0.17190000
opls_700-80    C    0.15338992    0.90226008    0.38354009    0.06100000
opls_145-81    C    0.14481008    0.91625004    0.40878010    -0.12130000
opls_145-82    C    0.15832000    0.92861004    0.42988992    -0.17300000
opls_145-83    C    0.18056000    0.92740000    0.42588992    0.18800000
opls_145-84    C    0.18922000    0.91310996    0.40101006    -0.17190000
opls_145-85    C    0.17571008    0.90054996    0.38017994    -0.12980000
opls_142-86    C    0.21314000    0.94638996    0.44149987    0.07000000
opls_700-87    C    0.22526000    0.95938996    0.46713998    0.05930000
opls_145-88    C    0.21820000    0.96185004    0.50221990    -0.12750000
opls_145-89    C    0.24418992    0.96952000    0.45643001    -0.12490000
opls_145-90    C    0.22986000    0.97428000    0.52605001    -0.17190000
opls_916-91    C    0.24866992    0.98466008    0.51524001    0.16410000
opls_145-92    C    0.25571008    0.98216000    0.48019000    -0.17070000
opls_145-93    C    0.15188992    0.90290008    0.30511008    -0.12450000
opls_700-94    C    0.13920000    0.88860000    0.32464991    0.03270000
opls_700-95    C    0.13899008    0.88861004    0.36211008    0.02940000
opls_145-96    C    0.46124992    0.04062996    0.56148002    -0.10750000
opls_700-97    C    0.49216000    0.00822996    0.56216989    0.02660000
opls_145-98    C    0.12738000    0.87304000    0.19296004    -0.17410000
opls_700-99    C    0.12622000    0.87401992    0.26683990    -0.00610000
opls_700-100    C    0.12572000    0.87440000    0.30619000    -0.01460000
opls_145-101    C    0.12500000    0.87494996    0.38011008    -0.17230000
opls_700-102    C    0.43112992    0.01538008    0.56122996    0.06390000
opls_145-103    C    0.41802992    0.02472000    0.58716989    -0.12780000
opls_145-104    C    0.39582000    0.02262996    0.58540990    -0.16600000
opls_145-105    C    0.38630000    0.01085992    0.55817994    0.18800000
opls_145-106    C    0.39934000    0.00148000    0.53207992    -0.18000000
opls_145-107    C    0.42156992    0.00396000    0.53340990    -0.13260000
opls_142-108    C    0.35231008    0.99456000    0.54263006    0.06880000
opls_700-109    C    0.32873008    0.99560000    0.54206007    0.06040000
opls_145-110    C    0.31792000    0.01498996    0.54721011    -0.12750000
opls_145-111    C    0.31682992    0.97702008    0.53601006    -0.12220000
opls_145-112    C    0.29558992    0.01574996    0.54616989    -0.17060000
opls_916-113    C    0.28360000    0.99710996    0.54051998    0.16010000
opls_145-114    C    0.29448000    0.97770996    0.53558005    -0.17170000
opls_145-115    C    0.46412000    0.98132000    0.56270998    -0.12360000
opls_700-116    C    0.47006992    0.00290996    0.56207012    0.02940000
opls_700-117    C    0.45455008    0.01937992    0.56170998    0.02940000
opls_700-118    C    0.01307008    0.32697992    0.04859989    0.05520000
opls_145-119    C    0.99242000    0.31850996    0.05284996    -0.13260000
opls_145-120    C    0.03032000    0.31309004    0.04313998    -0.11950000
opls_145-121    C    0.98909008    0.29648000    0.05102011    -0.17920000
opls_916-122    C    0.00638992    0.28254996    0.04536994    0.15960000
opls_145-123    C    0.02705008    0.29110008    0.04183011    -0.16970000
opls_145-124    C    0.03835008    0.22102996    0.57513998    -0.12010000
opls_700-125    C    0.04014992    0.22682996    0.61088992    0.06020000
opls_145-126    C    0.02816000    0.24410008    0.62360995    -0.12450000
opls_142-127    C    0.05410000    0.21482996    0.63527997    0.06890000
opls_145-128    C    0.07452000    0.18273992    0.64825007    0.18800000
opls_145-129    C    0.07404992    0.16072000    0.64245012    -0.16610000
opls_145-130    C    0.08651008    0.14702996    0.66306007    -0.12490000
opls_700-131    C    0.09992000    0.15524000    0.68953003    0.06090000
opls_145-132    C    0.10106000    0.17740000    0.69445012    -0.12970000
opls_145-133    C    0.08832000    0.19106996    0.67420005    -0.17490000
opls_700-134    C    0.11334000    0.14060000    0.71093993    0.02980000
opls_700-135    C    0.11248992    0.13994996    0.74836994    0.03300000
opls_145-136    C    0.09778000    0.15226008    0.76783011    -0.12490000
opls_145-137    C    0.01413008    0.25504000    0.60122996    -0.17180000
opls_916-138    C    0.01210000    0.24909992    0.56551998    0.15960000
opls_145-139    C    0.02458000    0.23214996    0.55264991    -0.16940000
opls_700-140    C    0.90268000    0.84692000    0.88329002    0.06090000
opls_145-141    C    0.91673008    0.85569004    0.90832998    -0.12480000
opls_145-142    C    0.92932000    0.84242996    0.92946997    -0.17400000
opls_145-143    C    0.92832000    0.82025992    0.92573009    0.18800000
opls_145-144    C    0.91398000    0.81140000    0.90105001    -0.17650000
opls_145-145    C    0.90116992    0.82465992    0.88019000    -0.12990000
opls_142-146    C    0.94740000    0.78790996    0.94207992    0.06900000
opls_700-147    C    0.96038000    0.77600000    0.96805001    0.06340000
opls_145-148    C    0.96375008    0.78382996    0.00243001    -0.12770000
opls_145-149    C    0.96935008    0.75633004    0.95845991    -0.12130000
opls_145-150    C    0.97575008    0.77210996    0.02679995    -0.17010000
opls_916-151    C    0.98478000    0.75244000    0.01721011    0.16470000
opls_145-152    C    0.98154000    0.74472000    0.98273009    -0.17060000
opls_145-153    C    0.90271008    0.84813004    0.80473988    -0.12220000
opls_700-154    C    0.88854992    0.86086996    0.82448002    0.03230000
opls_700-155    C    0.88873008    0.86108000    0.86194999    0.02920000
opls_700-156    C    0.51190000    0.93073004    0.56007992    0.06530000
opls_145-157    C    0.51988992    0.91833004    0.53208997    -0.12490000
opls_145-158    C    0.51680992    0.89630996    0.53170998    -0.16950000
opls_145-159    C    0.50566000    0.88626996    0.55937999    0.18800000
opls_145-160    C    0.49708000    0.89870008    0.58675999    -0.17060000
opls_145-161    C    0.50054000    0.92073992    0.58753003    -0.13290000
opls_142-162    C    0.51702000    0.85014996    0.54863006    0.06950000
opls_145-163    C    0.47943008    0.96525004    0.56191003    -0.11300000
opls_700-164    C    0.50138000    0.97006008    0.56206007    0.03110000
opls_700-165    C    0.51710000    0.95380000    0.56155994    0.02980000
opls_145-166    C    0.21966000    0.96340000    0.07434004    -0.12640000
opls_700-167    C    0.22605008    0.96118996    0.10979995    0.05840000
opls_145-168    C    0.24408000    0.97238008    0.12177004    -0.12490000
opls_142-169    C    0.21411008    0.94745004    0.13459010    0.06940000
opls_145-170    C    0.18216000    0.92688000    0.14821990    0.18790000
opls_145-171    C    0.16000000    0.92701992    0.14270998    -0.17150000
opls_145-172    C    0.14656992    0.91433004    0.16340011    -0.12430000
opls_700-173    C    0.15512992    0.90105004    0.18973988    0.06110000
opls_145-174    C    0.17740992    0.90030996    0.19445012    -0.13120000
opls_145-175    C    0.19086000    0.91322996    0.17406007    -0.17910000
opls_700-176    C    0.14075008    0.88728000    0.21106007    0.03280000
opls_700-177    C    0.14008000    0.88794996    0.24851998    0.02960000
opls_145-178    C    0.15228000    0.90262996    0.26817994    -0.12660000
opls_145-179    C    0.25534992    0.98581004    0.09888013    -0.17060000
opls_916-180    C    0.24896992    0.98806008    0.06341995    0.15940000
opls_145-181    C    0.23106992    0.97661992    0.05136994    -0.17190000
opls_700-182    C    0.84661008    0.09774008    0.38354009    0.06100000
opls_145-183    C    0.85519008    0.08374996    0.40878010    -0.12130000
opls_145-184    C    0.84168000    0.07138996    0.42988992    -0.17300000
opls_145-185    C    0.81944000    0.07260000    0.42588992    0.18800000
opls_145-186    C    0.81078000    0.08689004    0.40101006    -0.17180000
opls_145-187    C    0.82428992    0.09945004    0.38017994    -0.12990000
opls_142-188    C    0.78686000    0.05361004    0.44149987    0.07000000
opls_700-189    C    0.77474000    0.04061004    0.46713998    0.05930000
opls_145-190    C    0.78180000    0.03814996    0.50221990    -0.12750000
opls_145-191    C    0.75580992    0.03048000    0.45643001    -0.12480000
opls_145-192    C    0.77014000    0.02572000    0.52605001    -0.17190000
opls_916-193    C    0.75133008    0.01534008    0.51524001    0.16400000
opls_145-194    C    0.74428992    0.01784000    0.48019000    -0.17070000
opls_145-195    C    0.84811008    0.09709992    0.30511008    -0.12440000
opls_700-196    C    0.86080000    0.11140000    0.32464991    0.03270000
opls_700-197    C    0.86100992    0.11138996    0.36211008    0.03060000
opls_145-198    C    0.53875008    0.95937004    0.56148002    -0.10750000
opls_700-199    C    0.50784000    0.99177004    0.56216989    0.02660000
opls_145-200    C    0.87262000    0.12696000    0.19296004    -0.17410000
opls_700-201    C    0.87378000    0.12597992    0.26683990    -0.00610000
opls_700-202    C    0.87428000    0.12560000    0.30619000    -0.01460000
opls_145-203    C    0.87500000    0.12505004    0.38011008    -0.17230000
opls_700-204    C    0.06887008    0.51537992    0.56122996    0.06390000
opls_145-205    C    0.08196992    0.52472000    0.58716989    -0.12780000
opls_145-206    C    0.10418000    0.52262996    0.58540990    -0.16610000
opls_145-207    C    0.11370000    0.51086008    0.55817994    0.18800000
opls_145-208    C    0.10066000    0.50148000    0.53207992    -0.18000000
opls_145-209    C    0.07843008    0.50396000    0.53340990    -0.13250000
opls_142-210    C    0.14768992    0.49456000    0.54263006    0.06880000
opls_700-211    C    0.17127008    0.49560000    0.54206007    0.06040000
opls_145-212    C    0.18208000    0.51498996    0.54721011    -0.12750000
opls_145-213    C    0.18316992    0.47702008    0.53601006    -0.12220000
opls_145-214    C    0.20440992    0.51574996    0.54616989    -0.17060000
opls_916-215    C    0.21640000    0.49710996    0.54051998    0.16010000
opls_145-216    C    0.20552000    0.47770996    0.53558005    -0.17170000
opls_145-217    C    0.03588000    0.48132000    0.56270998    -0.12350000
opls_700-218    C    0.02992992    0.50290996    0.56207012    0.02940000
opls_700-219    C    0.04545008    0.51938008    0.56170998    0.02940000
opls_700-220    C    0.48693008    0.82697992    0.04859989    0.05520000
opls_145-221    C    0.50758000    0.81850996    0.05284996    -0.13260000
opls_145-222    C    0.46968000    0.81309004    0.04313998    -0.11950000
opls_145-223    C    0.51091008    0.79648000    0.05102011    -0.17920000
opls_916-224    C    0.49361008    0.78254996    0.04536994    0.15960000
opls_145-225    C    0.47294992    0.79110008    0.04183011    -0.16970000
opls_145-226    C    0.46164992    0.72102996    0.57513998    -0.12010000
opls_700-227    C    0.45985008    0.72682996    0.61088992    0.06020000
opls_145-228    C    0.47184000    0.74410008    0.62360995    -0.12450000
opls_142-229    C    0.44590000    0.71482996    0.63527997    0.06880000
opls_145-230    C    0.42548000    0.68273992    0.64825007    0.18800000
opls_145-231    C    0.42594992    0.66072000    0.64245012    -0.16610000
opls_145-232    C    0.41349008    0.64702996    0.66306007    -0.12480000
opls_700-233    C    0.40008000    0.65524000    0.68953003    0.06090000
opls_145-234    C    0.39894000    0.67740000    0.69445012    -0.12970000
opls_145-235    C    0.41168000    0.69106996    0.67420005    -0.17480000
opls_700-236    C    0.38666000    0.64060000    0.71093993    0.02980000
opls_700-237    C    0.38750992    0.63994996    0.74836994    0.03300000
opls_145-238    C    0.40222000    0.65226008    0.76783011    -0.12480000
opls_145-239    C    0.48587008    0.75504000    0.60122996    -0.17190000
opls_916-240    C    0.48790000    0.74910008    0.56551998    0.15970000
opls_145-241    C    0.47542000    0.73214996    0.55264991    -0.16950000
opls_700-242    C    0.59732000    0.34692000    0.88329002    0.06090000
opls_145-243    C    0.58326992    0.35569004    0.90832998    -0.12490000
opls_145-244    C    0.57068000    0.34242996    0.92946997    -0.17400000
opls_145-245    C    0.57168000    0.32026008    0.92573009    0.18800000
opls_145-246    C    0.58602000    0.31140000    0.90105001    -0.17660000
opls_145-247    C    0.59883008    0.32466008    0.88019000    -0.12990000
opls_142-248    C    0.55260000    0.28790996    0.94207992    0.06900000
opls_700-249    C    0.53962000    0.27600000    0.96805001    0.06340000
opls_145-250    C    0.53624992    0.28382996    0.00243001    -0.12770000
opls_145-251    C    0.53064992    0.25633004    0.95845991    -0.12130000
opls_145-252    C    0.52424992    0.27210996    0.02679995    -0.17010000
opls_916-253    C    0.51522000    0.25244000    0.01721011    0.16470000
opls_145-254    C    0.51846000    0.24472000    0.98273009    -0.17060000
opls_145-255    C    0.59728992    0.34813004    0.80473988    -0.12220000
opls_700-256    C    0.61145008    0.36086996    0.82448002    0.03230000
opls_700-257    C    0.61126992    0.36108000    0.86194999    0.02920000
opls_700-258    C    0.98810000    0.43073004    0.56007992    0.06530000
opls_145-259    C    0.98011008    0.41833004    0.53208997    -0.12490000
opls_145-260    C    0.98319008    0.39630996    0.53170998    -0.16950000
opls_145-261    C    0.99434000    0.38626996    0.55937999    0.18790000
opls_145-262    C    0.00292000    0.39870008    0.58675999    -0.17060000
opls_145-263    C    0.99946000    0.42073992    0.58753003    -0.13290000
opls_142-264    C    0.98298000    0.35014996    0.54863006    0.06950000
opls_145-265    C    0.02057008    0.46525004    0.56191003    -0.11300000
opls_700-266    C    0.99862000    0.47006008    0.56206007    0.03110000
opls_700-267    C    0.98290000    0.45380000    0.56155994    0.02990000
opls_145-268    C    0.28034000    0.46340000    0.07434004    -0.12640000
opls_700-269    C    0.27394992    0.46118996    0.10979995    0.05840000
opls_145-270    C    0.25592000    0.47237992    0.12177004    -0.12490000
opls_142-271    C    0.28588992    0.44745004    0.13459010    0.06940000
opls_145-272    C    0.31784000    0.42688000    0.14821990    0.18790000
opls_145-273    C    0.34000000    0.42701992    0.14270998    -0.17150000
opls_145-274    C    0.35343008    0.41433004    0.16340011    -0.12450000
opls_700-275    C    0.34487008    0.40105004    0.18973988    0.06110000
opls_145-276    C    0.32258992    0.40030996    0.19445012    -0.13120000
opls_145-277    C    0.30914000    0.41322996    0.17406007    -0.17920000
opls_700-278    C    0.35924992    0.38728000    0.21106007    0.03280000
opls_700-279    C    0.35992000    0.38794996    0.24851998    0.02960000
opls_145-280    C    0.34772000    0.40262996    0.26817994    -0.12660000
opls_145-281    C    0.24465008    0.48581004    0.09888013    -0.17060000
opls_916-282    C    0.25103008    0.48806008    0.06341995    0.15930000
opls_145-283    C    0.26893008    0.47661992    0.05136994    -0.17190000
opls_700-284    C    0.65338992    0.59773992    0.38354009    0.06100000
opls_145-285    C    0.64480992    0.58374996    0.40878010    -0.12130000
opls_145-286    C    0.65832000    0.57138996    0.42988992    -0.17300000
opls_145-287    C    0.68056000    0.57260000    0.42588992    0.18810000
opls_145-288    C    0.68922000    0.58689004    0.40101006    -0.17190000
opls_145-289    C    0.67571008    0.59945004    0.38017994    -0.12990000
opls_142-290    C    0.71314000    0.55361004    0.44149987    0.07000000
opls_700-291    C    0.72526000    0.54061004    0.46713998    0.05930000
opls_145-292    C    0.71820000    0.53814996    0.50221990    -0.12740000
opls_145-293    C    0.74419008    0.53048000    0.45643001    -0.12490000
opls_145-294    C    0.72986000    0.52572000    0.52605001    -0.17190000
opls_916-295    C    0.74866992    0.51533992    0.51524001    0.16400000
opls_145-296    C    0.75571008    0.51784000    0.48019000    -0.17070000
opls_145-297    C    0.65188992    0.59709992    0.30511008    -0.12450000
opls_700-298    C    0.63920000    0.61140000    0.32464991    0.03270000
opls_700-299    C    0.63899008    0.61138996    0.36211008    0.02940000
opls_145-300    C    0.96124992    0.45937004    0.56148002    -0.10750000
opls_700-301    C    0.99216000    0.49177004    0.56216989    0.02660000
opls_145-302    C    0.62738000    0.62696000    0.19296004    -0.17410000
opls_700-303    C    0.62622000    0.62598008    0.26683990    -0.00610000
opls_700-304    C    0.62572000    0.62560000    0.30619000    -0.01460000
opls_145-305    C    0.62500000    0.62505004    0.38011008    -0.17240000
opls_700-306    C    0.93112992    0.48461992    0.56122996    0.06390000
opls_145-307    C    0.91802992    0.47528000    0.58716989    -0.12770000
opls_145-308    C    0.89582000    0.47737004    0.58540990    -0.16600000
opls_145-309    C    0.88630000    0.48914008    0.55817994    0.18800000
opls_145-310    C    0.89934000    0.49852000    0.53207992    -0.18000000
opls_145-311    C    0.92157008    0.49604000    0.53340990    -0.13260000
opls_142-312    C    0.85230992    0.50544000    0.54263006    0.06880000
opls_700-313    C    0.82873008    0.50440000    0.54206007    0.06040000
opls_145-314    C    0.81792000    0.48501004    0.54721011    -0.12750000
opls_145-315    C    0.81683008    0.52297992    0.53601006    -0.12220000
opls_145-316    C    0.79559008    0.48425004    0.54616989    -0.17060000
opls_916-317    C    0.78360000    0.50289004    0.54051998    0.16010000
opls_145-318    C    0.79448000    0.52229004    0.53558005    -0.17170000
opls_145-319    C    0.96412000    0.51868000    0.56270998    -0.12360000
opls_700-320    C    0.97007008    0.49709004    0.56207012    0.02940000
opls_700-321    C    0.95454992    0.48062008    0.56170998    0.02940000
opls_700-322    C    0.51307008    0.17301992    0.04859989    0.05520000
opls_145-323    C    0.49242000    0.18149004    0.05284996    -0.13260000
opls_145-324    C    0.53032000    0.18690996    0.04313998    -0.11950000
opls_145-325    C    0.48908992    0.20352000    0.05102011    -0.17920000
opls_916-326    C    0.50638992    0.21745004    0.04536994    0.15970000
opls_145-327    C    0.52704992    0.20890008    0.04183011    -0.16960000
opls_145-328    C    0.53835008    0.27897004    0.57513998    -0.12010000
opls_700-329    C    0.54014992    0.27317004    0.61088992    0.06020000
opls_145-330    C    0.52816000    0.25590008    0.62360995    -0.12450000
opls_142-331    C    0.55410000    0.28517004    0.63527997    0.06880000
opls_145-332    C    0.57452000    0.31726008    0.64825007    0.18800000
opls_145-333    C    0.57404992    0.33928000    0.64245012    -0.16610000
opls_145-334    C    0.58650992    0.35297004    0.66306007    -0.12490000
opls_700-335    C    0.59992000    0.34476000    0.68953003    0.06090000
opls_145-336    C    0.60106000    0.32260000    0.69445012    -0.12970000
opls_145-337    C    0.58832000    0.30893004    0.67420005    -0.17490000
opls_700-338    C    0.61334000    0.35940000    0.71093993    0.02980000
opls_700-339    C    0.61249008    0.36005004    0.74836994    0.03130000
opls_145-340    C    0.59778000    0.34774008    0.76783011    -0.12490000
opls_145-341    C    0.51412992    0.24496000    0.60122996    -0.17190000
opls_916-342    C    0.51210000    0.25090008    0.56551998    0.15960000
opls_145-343    C    0.52458000    0.26785004    0.55264991    -0.16950000
opls_700-344    C    0.40268000    0.65308000    0.88329002    0.06090000
opls_145-345    C    0.41673008    0.64430996    0.90832998    -0.12490000
opls_145-346    C    0.42932000    0.65757004    0.92946997    -0.17400000
opls_145-347    C    0.42832000    0.67974008    0.92573009    0.18810000
opls_145-348    C    0.41398000    0.68860000    0.90105001    -0.17660000
opls_145-349    C    0.40117008    0.67534008    0.88019000    -0.12990000
opls_142-350    C    0.44740000    0.71209004    0.94207992    0.06900000
opls_700-351    C    0.46038000    0.72400000    0.96805001    0.06340000
opls_145-352    C    0.46375008    0.71617004    0.00243001    -0.12780000
opls_145-353    C    0.46935008    0.74366996    0.95845991    -0.12130000
opls_145-354    C    0.47575008    0.72789004    0.02679995    -0.17010000
opls_916-355    C    0.48478000    0.74756000    0.01721011    0.16470000
opls_145-356    C    0.48154000    0.75528000    0.98273009    -0.17050000
opls_145-357    C    0.40270992    0.65186996    0.80473988    -0.12220000
opls_700-358    C    0.38855008    0.63913004    0.82448002    0.03230000
opls_700-359    C    0.38873008    0.63892000    0.86194999    0.02920000
opls_700-360    C    0.01190000    0.56926996    0.56007992    0.06530000
opls_145-361    C    0.01989008    0.58166996    0.53208997    -0.12490000
opls_145-362    C    0.01680992    0.60369004    0.53170998    -0.16950000
opls_145-363    C    0.00566000    0.61373004    0.55937999    0.18800000
opls_145-364    C    0.99708000    0.60129992    0.58675999    -0.17060000
opls_145-365    C    0.00054000    0.57926008    0.58753003    -0.13290000
opls_142-366    C    0.01702000    0.64985004    0.54863006    0.06950000
opls_145-367    C    0.97942992    0.53474996    0.56191003    -0.11300000
opls_700-368    C    0.00138000    0.52993992    0.56206007    0.03110000
opls_700-369    C    0.01710000    0.54620000    0.56155994    0.02980000
opls_145-370    C    0.71966000    0.53660000    0.07434004    -0.12630000
opls_700-371    C    0.72604992    0.53881004    0.10979995    0.05840000
opls_145-372    C    0.74408000    0.52761992    0.12177004    -0.12490000
opls_142-373    C    0.71411008    0.55254996    0.13459010    0.06940000
opls_145-374    C    0.68216000    0.57312000    0.14821990    0.18790000
opls_145-375    C    0.66000000    0.57298008    0.14270998    -0.17150000
opls_145-376    C    0.64657008    0.58566996    0.16340011    -0.12450000
opls_700-377    C    0.65512992    0.59894996    0.18973988    0.06110000
opls_145-378    C    0.67740992    0.59969004    0.19445012    -0.13120000
opls_145-379    C    0.69086000    0.58677004    0.17406007    -0.17920000
opls_700-380    C    0.64075008    0.61272000    0.21106007    0.03280000
opls_700-381    C    0.64008000    0.61205004    0.24851998    0.02960000
opls_145-382    C    0.65228000    0.59737004    0.26817994    -0.12660000
opls_145-383    C    0.75535008    0.51418996    0.09888013    -0.17060000
opls_916-384    C    0.74897008    0.51193992    0.06341995    0.15930000
opls_145-385    C    0.73107008    0.52338008    0.05136994    -0.17190000
opls_700-386    C    0.34661008    0.40225992    0.38354009    0.06100000
opls_145-387    C    0.35518992    0.41625004    0.40878010    -0.12120000
opls_145-388    C    0.34168000    0.42861004    0.42988992    -0.17290000
opls_145-389    C    0.31944000    0.42740000    0.42588992    0.18800000
opls_145-390    C    0.31078000    0.41310996    0.40101006    -0.17190000
opls_145-391    C    0.32429008    0.40054996    0.38017994    -0.12990000
opls_142-392    C    0.28686000    0.44638996    0.44149987    0.07000000
opls_700-393    C    0.27474000    0.45938996    0.46713998    0.05930000
opls_145-394    C    0.28180000    0.46185004    0.50221990    -0.12740000
opls_145-395    C    0.25581008    0.46952000    0.45643001    -0.12490000
opls_145-396    C    0.27014000    0.47428000    0.52605001    -0.17190000
opls_916-397    C    0.25133008    0.48465992    0.51524001    0.16400000
opls_145-398    C    0.24428992    0.48216000    0.48019000    -0.17070000
opls_145-399    C    0.34811008    0.40289992    0.30511008    -0.12450000
opls_700-400    C    0.36080000    0.38860000    0.32464991    0.03270000
opls_700-401    C    0.36100992    0.38861004    0.36211008    0.03060000
opls_145-402    C    0.03875008    0.54062996    0.56148002    -0.10750000
opls_700-403    C    0.00784000    0.50822996    0.56216989    0.02660000
opls_145-404    C    0.37262000    0.37304000    0.19296004    -0.17410000
opls_700-405    C    0.37378000    0.37401992    0.26683990    -0.00610000
opls_700-406    C    0.37428000    0.37440000    0.30619000    -0.01460000
opls_145-407    C    0.37500000    0.37494996    0.38011008    -0.17240000
opls_700-408    C    0.06887008    0.48461992    0.06122996    0.06390000
opls_145-409    C    0.08196992    0.47528000    0.08716989    -0.12780000
opls_145-410    C    0.10418000    0.47737004    0.08540990    -0.16610000
opls_145-411    C    0.11370000    0.48914008    0.05817994    0.18800000
opls_145-412    C    0.10066000    0.49852000    0.03207992    -0.18000000
opls_145-413    C    0.07843008    0.49604000    0.03340990    -0.13260000
opls_142-414    C    0.14768992    0.50544000    0.04263006    0.06890000
opls_700-415    C    0.17127008    0.50440000    0.04206007    0.06040000
opls_145-416    C    0.18208000    0.48501004    0.04721011    -0.12750000
opls_145-417    C    0.18316992    0.52297992    0.03601006    -0.12220000
opls_145-418    C    0.20440992    0.48425004    0.04616989    -0.17060000
opls_916-419    C    0.21640000    0.50289004    0.04051998    0.16010000
opls_145-420    C    0.20552000    0.52229004    0.03558005    -0.17170000
opls_145-421    C    0.03588000    0.51868000    0.06270998    -0.12360000
opls_700-422    C    0.02992992    0.49709004    0.06207012    0.02940000
opls_700-423    C    0.04545008    0.48062008    0.06170998    0.02940000
opls_700-424    C    0.48693008    0.17301992    0.54859989    0.05520000
opls_145-425    C    0.50758000    0.18149004    0.55284996    -0.13250000
opls_145-426    C    0.46968000    0.18690996    0.54313998    -0.11940000
opls_145-427    C    0.51091008    0.20352000    0.55102011    -0.17920000
opls_916-428    C    0.49361008    0.21745004    0.54536994    0.15960000
opls_145-429    C    0.47294992    0.20890008    0.54183011    -0.16970000
opls_145-430    C    0.46164992    0.27897004    0.07513998    -0.12010000
opls_700-431    C    0.45985008    0.27317004    0.11088992    0.06020000
opls_145-432    C    0.47184000    0.25590008    0.12360995    -0.12450000
opls_142-433    C    0.44590000    0.28517004    0.13527997    0.06880000
opls_145-434    C    0.42548000    0.31726008    0.14825007    0.18810000
opls_145-435    C    0.42594992    0.33928000    0.14245012    -0.16600000
opls_145-436    C    0.41349008    0.35297004    0.16306007    -0.12480000
opls_700-437    C    0.40008000    0.34476000    0.18953003    0.06090000
opls_145-438    C    0.39894000    0.32260000    0.19445012    -0.12970000
opls_145-439    C    0.41168000    0.30893004    0.17420005    -0.17490000
opls_700-440    C    0.38666000    0.35940000    0.21093993    0.02980000
opls_700-441    C    0.38750992    0.36005004    0.24836994    0.03130000
opls_145-442    C    0.40222000    0.34774008    0.26783011    -0.12480000
opls_145-443    C    0.48587008    0.24496000    0.10122996    -0.17190000
opls_916-444    C    0.48790000    0.25090008    0.06551998    0.15960000
opls_145-445    C    0.47542000    0.26785004    0.05264991    -0.16950000
opls_700-446    C    0.59732000    0.65308000    0.38329002    0.06090000
opls_145-447    C    0.58326992    0.64430996    0.40832998    -0.12490000
opls_145-448    C    0.57068000    0.65757004    0.42946997    -0.17400000
opls_145-449    C    0.57168000    0.67974008    0.42573009    0.18800000
opls_145-450    C    0.58602000    0.68860000    0.40105001    -0.17660000
opls_145-451    C    0.59883008    0.67534008    0.38019000    -0.12990000
opls_142-452    C    0.55260000    0.71209004    0.44207992    0.06900000
opls_700-453    C    0.53962000    0.72400000    0.46805001    0.06340000
opls_145-454    C    0.53624992    0.71617004    0.50243001    -0.12780000
opls_145-455    C    0.53064992    0.74366996    0.45845991    -0.12130000
opls_145-456    C    0.52424992    0.72789004    0.52679995    -0.17000000
opls_916-457    C    0.51522000    0.74756000    0.51721011    0.16470000
opls_145-458    C    0.51846000    0.75528000    0.48273009    -0.17060000
opls_145-459    C    0.59728992    0.65186996    0.30473988    -0.12220000
opls_700-460    C    0.61145008    0.63913004    0.32448002    0.03240000
opls_700-461    C    0.61126992    0.63892000    0.36194999    0.02920000
opls_700-462    C    0.98810000    0.56926996    0.06007992    0.06530000
opls_145-463    C    0.98011008    0.58166996    0.03208997    -0.12490000
opls_145-464    C    0.98319008    0.60369004    0.03170998    -0.16950000
opls_145-465    C    0.99434000    0.61373004    0.05937999    0.18810000
opls_145-466    C    0.00292000    0.60129992    0.08675999    -0.17060000
opls_145-467    C    0.99946000    0.57926008    0.08753003    -0.13290000
opls_142-468    C    0.98298000    0.64985004    0.04863006    0.06950000
opls_145-469    C    0.02057008    0.53474996    0.06191003    -0.11300000
opls_700-470    C    0.99862000    0.52993992    0.06206007    0.03110000
opls_700-471    C    0.98290000    0.54620000    0.06155994    0.02980000
opls_145-472    C    0.28034000    0.53660000    0.57434004    -0.12640000
opls_700-473    C    0.27394992    0.53881004    0.60979995    0.05840000
opls_145-474    C    0.25592000    0.52761992    0.62177004    -0.12490000
opls_142-475    C    0.28588992    0.55254996    0.63459010    0.06940000
opls_145-476    C    0.31784000    0.57312000    0.64821990    0.18790000
opls_145-477    C    0.34000000    0.57298008    0.64270998    -0.17150000
opls_145-478    C    0.35343008    0.58566996    0.66340011    -0.12450000
opls_700-479    C    0.34487008    0.59894996    0.68973988    0.06110000
opls_145-480    C    0.32258992    0.59969004    0.69445012    -0.13120000
opls_145-481    C    0.30914000    0.58677004    0.67406007    -0.17920000
opls_700-482    C    0.35924992    0.61272000    0.71106007    0.03280000
opls_700-483    C    0.35992000    0.61205004    0.74851998    0.02960000
opls_145-484    C    0.34772000    0.59737004    0.76817994    -0.12660000
opls_145-485    C    0.24465008    0.51418996    0.59888013    -0.17060000
opls_916-486    C    0.25103008    0.51193992    0.56341995    0.15930000
opls_145-487    C    0.26893008    0.52338008    0.55136994    -0.17190000
opls_700-488    C    0.65338992    0.40225992    0.88354009    0.06100000
opls_145-489    C    0.64480992    0.41625004    0.90878010    -0.12130000
opls_145-490    C    0.65832000    0.42861004    0.92988992    -0.17300000
opls_145-491    C    0.68056000    0.42740000    0.92588992    0.18800000
opls_145-492    C    0.68922000    0.41310996    0.90101006    -0.17190000
opls_145-493    C    0.67571008    0.40054996    0.88017994    -0.12990000
opls_142-494    C    0.71314000    0.44638996    0.94149987    0.07000000
opls_700-495    C    0.72526000    0.45938996    0.96713998    0.05930000
opls_145-496    C    0.71820000    0.46185004    0.00221990    -0.12750000
opls_145-497    C    0.74419008    0.46952000    0.95643001    -0.12490000
opls_145-498    C    0.72986000    0.47428000    0.02605001    -0.17190000
opls_916-499    C    0.74866992    0.48465992    0.01524001    0.16400000
opls_145-500    C    0.75571008    0.48216000    0.98019000    -0.17070000
opls_145-501    C    0.65188992    0.40289992    0.80511008    -0.12450000
opls_700-502    C    0.63920000    0.38860000    0.82464991    0.03270000
opls_700-503    C    0.63899008    0.38861004    0.86211008    0.03060000
opls_145-504    C    0.96124992    0.54062996    0.06148002    -0.10750000
opls_700-505    C    0.99216000    0.50822996    0.06216989    0.02660000
opls_145-506    C    0.62738000    0.37304000    0.69296004    -0.17400000
opls_700-507    C    0.62622000    0.37401992    0.76683990    -0.00610000
opls_700-508    C    0.62572000    0.37440000    0.80619000    -0.01460000
opls_145-509    C    0.62500000    0.37494996    0.88011008    -0.17240000
opls_700-510    C    0.93112992    0.51537992    0.06122996    0.06390000
opls_145-511    C    0.91802992    0.52472000    0.08716989    -0.12780000
opls_145-512    C    0.89582000    0.52262996    0.08540990    -0.16610000
opls_145-513    C    0.88630000    0.51086008    0.05817994    0.18800000
opls_145-514    C    0.89934000    0.50148000    0.03207992    -0.18000000
opls_145-515    C    0.92157008    0.50396000    0.03340990    -0.13260000
opls_142-516    C    0.85230992    0.49456000    0.04263006    0.06880000
opls_700-517    C    0.82873008    0.49560000    0.04206007    0.06040000
opls_145-518    C    0.81792000    0.51498996    0.04721011    -0.12750000
opls_145-519    C    0.81683008    0.47702008    0.03601006    -0.12220000
opls_145-520    C    0.79559008    0.51574996    0.04616989    -0.17060000
opls_916-521    C    0.78360000    0.49710996    0.04051998    0.16010000
opls_145-522    C    0.79448000    0.47770996    0.03558005    -0.17170000
opls_145-523    C    0.96412000    0.48132000    0.06270998    -0.12360000
opls_700-524    C    0.97007008    0.50290996    0.06207012    0.02940000
opls_700-525    C    0.95454992    0.51938008    0.06170998    0.02940000
opls_700-526    C    0.51307008    0.82697992    0.54859989    0.05520000
opls_145-527    C    0.49242000    0.81850996    0.55284996    -0.13260000
opls_145-528    C    0.53032000    0.81309004    0.54313998    -0.11930000
opls_145-529    C    0.48908992    0.79648000    0.55102011    -0.17920000
opls_916-530    C    0.50638992    0.78254996    0.54536994    0.15960000
opls_145-531    C    0.52704992    0.79110008    0.54183011    -0.16970000
opls_145-532    C    0.53835008    0.72102996    0.07513998    -0.12000000
opls_700-533    C    0.54014992    0.72682996    0.11088992    0.06020000
opls_145-534    C    0.52816000    0.74410008    0.12360995    -0.12450000
opls_142-535    C    0.55410000    0.71482996    0.13527997    0.06880000
opls_145-536    C    0.57452000    0.68273992    0.14825007    0.18800000
opls_145-537    C    0.57404992    0.66072000    0.14245012    -0.16610000
opls_145-538    C    0.58650992    0.64702996    0.16306007    -0.12480000
opls_700-539    C    0.59992000    0.65524000    0.18953003    0.06090000
opls_145-540    C    0.60106000    0.67740000    0.19445012    -0.12960000
opls_145-541    C    0.58832000    0.69106996    0.17420005    -0.17490000
opls_700-542    C    0.61334000    0.64060000    0.21093993    0.02980000
opls_700-543    C    0.61249008    0.63994996    0.24836994    0.03300000
opls_145-544    C    0.59778000    0.65226008    0.26783011    -0.12490000
opls_145-545    C    0.51412992    0.75504000    0.10122996    -0.17190000
opls_916-546    C    0.51210000    0.74910008    0.06551998    0.15960000
opls_145-547    C    0.52458000    0.73214996    0.05264991    -0.16950000
opls_700-548    C    0.40268000    0.34692000    0.38329002    0.06090000
opls_145-549    C    0.41673008    0.35569004    0.40832998    -0.12490000
opls_145-550    C    0.42932000    0.34242996    0.42946997    -0.17400000
opls_145-551    C    0.42832000    0.32026008    0.42573009    0.18800000
opls_145-552    C    0.41398000    0.31140000    0.40105001    -0.17660000
opls_145-553    C    0.40117008    0.32466008    0.38019000    -0.12990000
opls_142-554    C    0.44740000    0.28790996    0.44207992    0.06900000
opls_700-555    C    0.46038000    0.27600000    0.46805001    0.06340000
opls_145-556    C    0.46375008    0.28382996    0.50243001    -0.12780000
opls_145-557    C    0.46935008    0.25633004    0.45845991    -0.12130000
opls_145-558    C    0.47575008    0.27210996    0.52679995    -0.17010000
opls_916-559    C    0.48478000    0.25244000    0.51721011    0.16470000
opls_145-560    C    0.48154000    0.24472000    0.48273009    -0.17050000
opls_145-561    C    0.40270992    0.34813004    0.30473988    -0.12220000
opls_700-562    C    0.38855008    0.36086996    0.32448002    0.03230000
opls_700-563    C    0.38873008    0.36108000    0.36194999    0.02920000
opls_700-564    C    0.01190000    0.43073004    0.06007992    0.06530000
opls_145-565    C    0.01989008    0.41833004    0.03208997    -0.12490000
opls_145-566    C    0.01680992    0.39630996    0.03170998    -0.16950000
opls_145-567    C    0.00566000    0.38626996    0.05937999    0.18790000
opls_145-568    C    0.99708000    0.39870008    0.08675999    -0.17060000
opls_145-569    C    0.00054000    0.42073992    0.08753003    -0.13290000
opls_142-570    C    0.01702000    0.35014996    0.04863006    0.06950000
opls_145-571    C    0.97942992    0.46525004    0.06191003    -0.11300000
opls_700-572    C    0.00138000    0.47006008    0.06206007    0.03110000
opls_700-573    C    0.01710000    0.45380000    0.06155994    0.02980000
opls_145-574    C    0.71966000    0.46340000    0.57434004    -0.12640000
opls_700-575    C    0.72604992    0.46118996    0.60979995    0.05840000
opls_145-576    C    0.74408000    0.47237992    0.62177004    -0.12490000
opls_142-577    C    0.71411008    0.44745004    0.63459010    0.06940000
opls_145-578    C    0.68216000    0.42688000    0.64821990    0.18790000
opls_145-579    C    0.66000000    0.42701992    0.64270998    -0.17150000
opls_145-580    C    0.64657008    0.41433004    0.66340011    -0.12440000
opls_700-581    C    0.65512992    0.40105004    0.68973988    0.06110000
opls_145-582    C    0.67740992    0.40030996    0.69445012    -0.13120000
opls_145-583    C    0.69086000    0.41322996    0.67406007    -0.17920000
opls_700-584    C    0.64075008    0.38728000    0.71106007    0.03280000
opls_700-585    C    0.64008000    0.38794996    0.74851998    0.02960000
opls_145-586    C    0.65228000    0.40262996    0.76817994    -0.12660000
opls_145-587    C    0.75535008    0.48581004    0.59888013    -0.17060000
opls_916-588    C    0.74897008    0.48806008    0.56341995    0.15930000
opls_145-589    C    0.73107008    0.47661992    0.55136994    -0.17190000
opls_700-590    C    0.34661008    0.59773992    0.88354009    0.06100000
opls_145-591    C    0.35518992    0.58374996    0.90878010    -0.12130000
opls_145-592    C    0.34168000    0.57138996    0.92988992    -0.17300000
opls_145-593    C    0.31944000    0.57260000    0.92588992    0.18800000
opls_145-594    C    0.31078000    0.58689004    0.90101006    -0.17190000
opls_145-595    C    0.32429008    0.59945004    0.88017994    -0.12980000
opls_142-596    C    0.28686000    0.55361004    0.94149987    0.07000000
opls_700-597    C    0.27474000    0.54061004    0.96713998    0.05930000
opls_145-598    C    0.28180000    0.53814996    0.00221990    -0.12750000
opls_145-599    C    0.25581008    0.53048000    0.95643001    -0.12490000
opls_145-600    C    0.27014000    0.52572000    0.02605001    -0.17190000
opls_916-601    C    0.25133008    0.51533992    0.01524001    0.16400000
opls_145-602    C    0.24428992    0.51784000    0.98019000    -0.17070000
opls_145-603    C    0.34811008    0.59709992    0.80511008    -0.12450000
opls_700-604    C    0.36080000    0.61140000    0.82464991    0.03270000
opls_700-605    C    0.36100992    0.61138996    0.86211008    0.02940000
opls_145-606    C    0.03875008    0.45937004    0.06148002    -0.10740000
opls_700-607    C    0.00784000    0.49177004    0.06216989    0.02660000
opls_145-608    C    0.37262000    0.62696000    0.69296004    -0.17400000
opls_700-609    C    0.37378000    0.62598008    0.76683990    -0.00610000
opls_700-610    C    0.37428000    0.62560000    0.80619000    -0.01460000
opls_145-611    C    0.37500000    0.62505004    0.88011008    -0.17240000
opls_700-612    C    0.56887008    0.01538008    0.06122996    0.06390000
opls_145-613    C    0.58197008    0.02472000    0.08716989    -0.12780000
opls_145-614    C    0.60418000    0.02262996    0.08540990    -0.16610000
opls_145-615    C    0.61370000    0.01085992    0.05817994    0.18800000
opls_145-616    C    0.60066000    0.00148000    0.03207992    -0.18000000
opls_145-617    C    0.57842992    0.00396000    0.03340990    -0.13260000
opls_142-618    C    0.64769008    0.99456000    0.04263006    0.06880000
opls_700-619    C    0.67126992    0.99560000    0.04206007    0.06040000
opls_145-620    C    0.68208000    0.01498996    0.04721011    -0.12750000
opls_145-621    C    0.68316992    0.97702008    0.03601006    -0.12210000
opls_145-622    C    0.70440992    0.01574996    0.04616989    -0.17050000
opls_916-623    C    0.71640000    0.99710996    0.04051998    0.16010000
opls_145-624    C    0.70552000    0.97770996    0.03558005    -0.17170000
opls_145-625    C    0.53588000    0.98132000    0.06270998    -0.12360000
opls_700-626    C    0.52992992    0.00290996    0.06207012    0.02940000
opls_700-627    C    0.54545008    0.01937992    0.06170998    0.02940000
opls_700-628    C    0.98692992    0.32697992    0.54859989    0.05520000
opls_145-629    C    0.00758000    0.31850996    0.55284996    -0.13250000
opls_145-630    C    0.96968000    0.31309004    0.54313998    -0.11950000
opls_145-631    C    0.01091008    0.29648000    0.55102011    -0.17920000
opls_916-632    C    0.99361008    0.28254996    0.54536994    0.15970000
opls_145-633    C    0.97295008    0.29110008    0.54183011    -0.16970000
opls_145-634    C    0.96164992    0.22102996    0.07513998    -0.12010000
opls_700-635    C    0.95985008    0.22682996    0.11088992    0.06020000
opls_145-636    C    0.97184000    0.24410008    0.12360995    -0.12450000
opls_142-637    C    0.94590000    0.21482996    0.13527997    0.06880000
opls_145-638    C    0.92548000    0.18273992    0.14825007    0.18800000
opls_145-639    C    0.92595008    0.16072000    0.14245012    -0.16600000
opls_145-640    C    0.91349008    0.14702996    0.16306007    -0.12480000
opls_700-641    C    0.90008000    0.15524000    0.18953003    0.06100000
opls_145-642    C    0.89894000    0.17740000    0.19445012    -0.12970000
opls_145-643    C    0.91168000    0.19106996    0.17420005    -0.17480000
opls_700-644    C    0.88666000    0.14060000    0.21093993    0.02980000
opls_700-645    C    0.88750992    0.13994996    0.24836994    0.03300000
opls_145-646    C    0.90222000    0.15226008    0.26783011    -0.12490000
opls_145-647    C    0.98587008    0.25504000    0.10122996    -0.17190000
opls_916-648    C    0.98790000    0.24909992    0.06551998    0.15960000
opls_145-649    C    0.97542000    0.23214996    0.05264991    -0.16950000
opls_700-650    C    0.09732000    0.84692000    0.38329002    0.06090000
opls_145-651    C    0.08326992    0.85569004    0.40832998    -0.12490000
opls_145-652    C    0.07068000    0.84242996    0.42946997    -0.17400000
opls_145-653    C    0.07168000    0.82025992    0.42573009    0.18800000
opls_145-654    C    0.08602000    0.81140000    0.40105001    -0.17650000
opls_145-655    C    0.09882992    0.82465992    0.38019000    -0.12990000
opls_142-656    C    0.05260000    0.78790996    0.44207992    0.06900000
opls_700-657    C    0.03962000    0.77600000    0.46805001    0.06340000
opls_145-658    C    0.03624992    0.78382996    0.50243001    -0.12780000
opls_145-659    C    0.03064992    0.75633004    0.45845991    -0.12130000
opls_145-660    C    0.02424992    0.77210996    0.52679995    -0.17010000
opls_916-661    C    0.01522000    0.75244000    0.51721011    0.16470000
opls_145-662    C    0.01846000    0.74472000    0.48273009    -0.17050000
opls_145-663    C    0.09729008    0.84813004    0.30473988    -0.12220000
opls_700-664    C    0.11145008    0.86086996    0.32448002    0.03230000
opls_700-665    C    0.11126992    0.86108000    0.36194999    0.02920000
opls_700-666    C    0.48810000    0.93073004    0.06007992    0.06530000
opls_145-667    C    0.48011008    0.91833004    0.03208997    -0.12490000
opls_145-668    C    0.48318992    0.89630996    0.03170998    -0.16940000
opls_145-669    C    0.49434000    0.88626996    0.05937999    0.18790000
opls_145-670    C    0.50292000    0.89870008    0.08675999    -0.17060000
opls_145-671    C    0.49946000    0.92073992    0.08753003    -0.13290000
opls_142-672    C    0.48298000    0.85014996    0.04863006    0.06950000
opls_145-673    C    0.52057008    0.96525004    0.06191003    -0.11300000
opls_700-674    C    0.49862000    0.97006008    0.06206007    0.03110000
opls_700-675    C    0.48290000    0.95380000    0.06155994    0.02980000
opls_145-676    C    0.78034000    0.96340000    0.57434004    -0.12630000
opls_700-677    C    0.77395008    0.96118996    0.60979995    0.05840000
opls_145-678    C    0.75592000    0.97238008    0.62177004    -0.12490000
opls_142-679    C    0.78588992    0.94745004    0.63459010    0.06940000
opls_145-680    C    0.81784000    0.92688000    0.64821990    0.18790000
opls_145-681    C    0.84000000    0.92701992    0.64270998    -0.17150000
opls_145-682    C    0.85342992    0.91433004    0.66340011    -0.12450000
opls_700-683    C    0.84487008    0.90105004    0.68973988    0.06120000
opls_145-684    C    0.82259008    0.90030996    0.69445012    -0.13120000
opls_145-685    C    0.80914000    0.91322996    0.67406007    -0.17920000
opls_700-686    C    0.85924992    0.88728000    0.71106007    0.03280000
opls_700-687    C    0.85992000    0.88794996    0.74851998    0.02960000
opls_145-688    C    0.84772000    0.90262996    0.76817994    -0.12650000
opls_145-689    C    0.74464992    0.98581004    0.59888013    -0.17060000
opls_916-690    C    0.75102992    0.98806008    0.56341995    0.15930000
opls_145-691    C    0.76892992    0.97661992    0.55136994    -0.17190000
opls_700-692    C    0.15338992    0.09774008    0.88354009    0.06100000
opls_145-693    C    0.14481008    0.08374996    0.90878010    -0.12130000
opls_145-694    C    0.15832000    0.07138996    0.92988992    -0.17300000
opls_145-695    C    0.18056000    0.07260000    0.92588992    0.18800000
opls_145-696    C    0.18922000    0.08689004    0.90101006    -0.17190000
opls_145-697    C    0.17571008    0.09945004    0.88017994    -0.12990000
opls_142-698    C    0.21314000    0.05361004    0.94149987    0.07000000
opls_700-699    C    0.22526000    0.04061004    0.96713998    0.05930000
opls_145-700    C    0.21820000    0.03814996    0.00221990    -0.12750000
opls_145-701    C    0.24418992    0.03048000    0.95643001    -0.12490000
opls_145-702    C    0.22986000    0.02572000    0.02605001    -0.17190000
opls_916-703    C    0.24866992    0.01534008    0.01524001    0.16400000
opls_145-704    C    0.25571008    0.01784000    0.98019000    -0.17070000
opls_145-705    C    0.15188992    0.09709992    0.80511008    -0.12450000
opls_700-706    C    0.13920000    0.11140000    0.82464991    0.03270000
opls_700-707    C    0.13899008    0.11138996    0.86211008    0.03060000
opls_145-708    C    0.46124992    0.95937004    0.06148002    -0.10750000
opls_700-709    C    0.49216000    0.99177004    0.06216989    0.02660000
opls_145-710    C    0.12738000    0.12696000    0.69296004    -0.17410000
opls_700-711    C    0.12622000    0.12597992    0.76683990    -0.00610000
opls_700-712    C    0.12572000    0.12560000    0.80619000    -0.01460000
opls_145-713    C    0.12500000    0.12505004    0.88011008    -0.17240000
opls_700-714    C    0.43112992    0.98462008    0.06122996    0.06390000
opls_145-715    C    0.41802992    0.97528000    0.08716989    -0.12780000
opls_145-716    C    0.39582000    0.97737004    0.08540990    -0.16610000
opls_145-717    C    0.38630000    0.98913992    0.05817994    0.18800000
opls_145-718    C    0.39934000    0.99852000    0.03207992    -0.18000000
opls_145-719    C    0.42156992    0.99604000    0.03340990    -0.13260000
opls_142-720    C    0.35231008    0.00544000    0.04263006    0.06880000
opls_700-721    C    0.32873008    0.00440000    0.04206007    0.06040000
opls_145-722    C    0.31792000    0.98501004    0.04721011    -0.12750000
opls_145-723    C    0.31682992    0.02297992    0.03601006    -0.12220000
opls_145-724    C    0.29558992    0.98425004    0.04616989    -0.17060000
opls_916-725    C    0.28360000    0.00289004    0.04051998    0.16010000
opls_145-726    C    0.29448000    0.02229004    0.03558005    -0.17170000
opls_145-727    C    0.46412000    0.01868000    0.06270998    -0.12360000
opls_700-728    C    0.47006992    0.99709004    0.06207012    0.02940000
opls_700-729    C    0.45455008    0.98061992    0.06170998    0.02940000
opls_700-730    C    0.01307008    0.67302008    0.54859989    0.05520000
opls_145-731    C    0.99242000    0.68149004    0.55284996    -0.13260000
opls_145-732    C    0.03032000    0.68690996    0.54313998    -0.11950000
opls_145-733    C    0.98909008    0.70352000    0.55102011    -0.17920000
opls_916-734    C    0.00638992    0.71745004    0.54536994    0.15960000
opls_145-735    C    0.02705008    0.70889992    0.54183011    -0.16960000
opls_145-736    C    0.03835008    0.77897004    0.07513998    -0.12010000
opls_700-737    C    0.04014992    0.77317004    0.11088992    0.06020000
opls_145-738    C    0.02816000    0.75589992    0.12360995    -0.12450000
opls_142-739    C    0.05410000    0.78517004    0.13527997    0.06880000
opls_145-740    C    0.07452000    0.81726008    0.14825007    0.18800000
opls_145-741    C    0.07404992    0.83928000    0.14245012    -0.16610000
opls_145-742    C    0.08651008    0.85297004    0.16306007    -0.12490000
opls_700-743    C    0.09992000    0.84476000    0.18953003    0.06090000
opls_145-744    C    0.10106000    0.82260000    0.19445012    -0.12970000
opls_145-745    C    0.08832000    0.80893004    0.17420005    -0.17490000
opls_700-746    C    0.11334000    0.85940000    0.21093993    0.02980000
opls_700-747    C    0.11248992    0.86005004    0.24836994    0.03300000
opls_145-748    C    0.09778000    0.84773992    0.26783011    -0.12490000
opls_145-749    C    0.01413008    0.74496000    0.10122996    -0.17190000
opls_916-750    C    0.01210000    0.75089992    0.06551998    0.15960000
opls_145-751    C    0.02458000    0.76785004    0.05264991    -0.16950000
opls_700-752    C    0.90268000    0.15308000    0.38329002    0.06090000
opls_145-753    C    0.91673008    0.14430996    0.40832998    -0.12490000
opls_145-754    C    0.92932000    0.15757004    0.42946997    -0.17400000
opls_145-755    C    0.92832000    0.17973992    0.42573009    0.18800000
opls_145-756    C    0.91398000    0.18860000    0.40105001    -0.17660000
opls_145-757    C    0.90116992    0.17533992    0.38019000    -0.12990000
opls_142-758    C    0.94740000    0.21209004    0.44207992    0.06900000
opls_700-759    C    0.96038000    0.22400000    0.46805001    0.06340000
opls_145-760    C    0.96375008    0.21617004    0.50243001    -0.12780000
opls_145-761    C    0.96935008    0.24366996    0.45845991    -0.12130000
opls_145-762    C    0.97575008    0.22789004    0.52679995    -0.17000000
opls_916-763    C    0.98478000    0.24756000    0.51721011    0.16480000
opls_145-764    C    0.98154000    0.25528000    0.48273009    -0.17060000
opls_145-765    C    0.90271008    0.15186996    0.30473988    -0.12210000
opls_700-766    C    0.88854992    0.13913004    0.32448002    0.03230000
opls_700-767    C    0.88873008    0.13892000    0.36194999    0.02920000
opls_700-768    C    0.51190000    0.06926996    0.06007992    0.06530000
opls_145-769    C    0.51988992    0.08166996    0.03208997    -0.12490000
opls_145-770    C    0.51680992    0.10369004    0.03170998    -0.16950000
opls_145-771    C    0.50566000    0.11373004    0.05937999    0.18790000
opls_145-772    C    0.49708000    0.10130008    0.08675999    -0.17060000
opls_145-773    C    0.50054000    0.07925992    0.08753003    -0.13280000
opls_142-774    C    0.51702000    0.14985004    0.04863006    0.06950000
opls_145-775    C    0.47943008    0.03474996    0.06191003    -0.11300000
opls_700-776    C    0.50138000    0.02994008    0.06206007    0.03110000
opls_700-777    C    0.51710000    0.04620000    0.06155994    0.02980000
opls_145-778    C    0.21966000    0.03660000    0.57434004    -0.12640000
opls_700-779    C    0.22605008    0.03881004    0.60979995    0.05840000
opls_145-780    C    0.24408000    0.02762008    0.62177004    -0.12490000
opls_142-781    C    0.21411008    0.05254996    0.63459010    0.06940000
opls_145-782    C    0.18216000    0.07312000    0.64821990    0.18790000
opls_145-783    C    0.16000000    0.07297992    0.64270998    -0.17150000
opls_145-784    C    0.14656992    0.08566996    0.66340011    -0.12450000
opls_700-785    C    0.15512992    0.09894996    0.68973988    0.06120000
opls_145-786    C    0.17740992    0.09969004    0.69445012    -0.13120000
opls_145-787    C    0.19086000    0.08677004    0.67406007    -0.17920000
opls_700-788    C    0.14075008    0.11272000    0.71106007    0.03280000
opls_700-789    C    0.14008000    0.11205004    0.74851998    0.02960000
opls_145-790    C    0.15228000    0.09737004    0.76817994    -0.12660000
opls_145-791    C    0.25534992    0.01418996    0.59888013    -0.17060000
opls_916-792    C    0.24896992    0.01193992    0.56341995    0.15930000
opls_145-793    C    0.23106992    0.02338008    0.55136994    -0.17190000
opls_700-794    C    0.84661008    0.90226008    0.88354009    0.06100000
opls_145-795    C    0.85519008    0.91625004    0.90878010    -0.12130000
opls_145-796    C    0.84168000    0.92861004    0.92988992    -0.17300000
opls_145-797    C    0.81944000    0.92740000    0.92588992    0.18800000
opls_145-798    C    0.81078000    0.91310996    0.90101006    -0.17180000
opls_145-799    C    0.82428992    0.90054996    0.88017994    -0.12990000
opls_142-800    C    0.78686000    0.94638996    0.94149987    0.07000000
opls_700-801    C    0.77474000    0.95938996    0.96713998    0.05930000
opls_145-802    C    0.78180000    0.96185004    0.00221990    -0.12750000
opls_145-803    C    0.75580992    0.96952000    0.95643001    -0.12490000
opls_145-804    C    0.77014000    0.97428000    0.02605001    -0.17180000
opls_916-805    C    0.75133008    0.98466008    0.01524001    0.16400000
opls_145-806    C    0.74428992    0.98216000    0.98019000    -0.17070000
opls_145-807    C    0.84811008    0.90290008    0.80511008    -0.12450000
opls_700-808    C    0.86080000    0.88860000    0.82464991    0.03270000
opls_700-809    C    0.86100992    0.88861004    0.86211008    0.02940000
opls_145-810    C    0.53875008    0.04062996    0.06148002    -0.10750000
opls_700-811    C    0.50784000    0.00822996    0.06216989    0.02660000
opls_145-812    C    0.87262000    0.87304000    0.69296004    -0.17410000
opls_700-813    C    0.87378000    0.87401992    0.76683990    -0.00610000
opls_700-814    C    0.87428000    0.87440000    0.80619000    -0.01460000
opls_145-815    C    0.87500000    0.87494996    0.88011008    -0.17240000
opls_750-816    N    0.63661008    0.99008000    0.55659989    -0.35720000
opls_750-817    N    0.93875008    0.80389004    0.62659010    -0.35720000
opls_750-818    N    0.05871008    0.19268000    0.94856999    -0.35720000
opls_239-819    N    0.00300000    0.25980000    0.04256999    -0.15250000
opls_750-820    N    0.49726992    0.13642996    0.56000000    -0.34500000
opls_750-821    N    0.80470000    0.05978996    0.12627997    -0.35710000
opls_750-822    N    0.19378000    0.94018008    0.44854988    -0.35700000
opls_239-823    N    0.26046000    0.99789004    0.53975999    -0.15240000
opls_750-824    N    0.36338992    0.00992000    0.55659989    -0.35700000
opls_750-825    N    0.06124992    0.19610996    0.62659010    -0.35710000
opls_750-826    N    0.94128992    0.80732000    0.94856999    -0.35710000
opls_239-827    N    0.99700000    0.74020000    0.04256999    -0.15230000
opls_750-828    N    0.50273008    0.86357004    0.56000000    -0.34490000
opls_750-829    N    0.19530000    0.94021004    0.12627997    -0.35720000
opls_750-830    N    0.80622000    0.05982008    0.44854988    -0.35710000
opls_239-831    N    0.73954000    0.00210996    0.53975999    -0.15250000
opls_750-832    N    0.13661008    0.50992000    0.55659989    -0.35720000
opls_750-833    N    0.43875008    0.69610996    0.62659010    -0.35710000
opls_750-834    N    0.55871008    0.30732000    0.94856999    -0.35710000
opls_239-835    N    0.50300000    0.24020000    0.04256999    -0.15250000
opls_750-836    N    0.99726992    0.36357004    0.56000000    -0.34480000
opls_750-837    N    0.30470000    0.44021004    0.12627997    -0.35720000
opls_750-838    N    0.69378000    0.55981992    0.44854988    -0.35720000
opls_239-839    N    0.76046000    0.50210996    0.53975999    -0.15250000
opls_750-840    N    0.86338992    0.49008000    0.55659989    -0.35720000
opls_750-841    N    0.56124992    0.30389004    0.62659010    -0.35720000
opls_750-842    N    0.44129008    0.69268000    0.94856999    -0.35710000
opls_239-843    N    0.49700000    0.75980000    0.04256999    -0.15240000
opls_750-844    N    0.00272992    0.63642996    0.56000000    -0.34490000
opls_750-845    N    0.69530000    0.55978996    0.12627997    -0.35720000
opls_750-846    N    0.30622000    0.44017992    0.44854988    -0.35720000
opls_239-847    N    0.23954000    0.49789004    0.53975999    -0.15250000
opls_750-848    N    0.13661008    0.49008000    0.05659989    -0.35710000
opls_750-849    N    0.43875008    0.30389004    0.12659010    -0.35700000
opls_750-850    N    0.55871008    0.69268000    0.44856999    -0.35690000
opls_239-851    N    0.50300000    0.75980000    0.54256999    -0.15250000
opls_750-852    N    0.99726992    0.63642996    0.06000000    -0.34500000
opls_750-853    N    0.30470000    0.55978996    0.62627997    -0.35710000
opls_750-854    N    0.69378000    0.44017992    0.94854988    -0.35720000
opls_239-855    N    0.76046000    0.49789004    0.03975999    -0.15250000
opls_750-856    N    0.86338992    0.50992000    0.05659989    -0.35720000
opls_750-857    N    0.56124992    0.69610996    0.12659010    -0.35720000
opls_750-858    N    0.44129008    0.30732000    0.44856999    -0.35720000
opls_239-859    N    0.49700000    0.24020000    0.54256999    -0.15250000
opls_750-860    N    0.00272992    0.36357004    0.06000000    -0.34500000
opls_750-861    N    0.69530000    0.44021004    0.62627997    -0.35720000
opls_750-862    N    0.30622000    0.55981992    0.94854988    -0.35720000
opls_239-863    N    0.23954000    0.50210996    0.03975999    -0.15240000
opls_750-864    N    0.63661008    0.00992000    0.05659989    -0.35720000
opls_750-865    N    0.93875008    0.19610996    0.12659010    -0.35710000
opls_750-866    N    0.05871008    0.80732000    0.44856999    -0.35710000
opls_239-867    N    0.00300000    0.74020000    0.54256999    -0.15250000
opls_750-868    N    0.49726992    0.86357004    0.06000000    -0.34500000
opls_750-869    N    0.80470000    0.94021004    0.62627997    -0.35720000
opls_750-870    N    0.19378000    0.05982008    0.94854988    -0.35690000
opls_239-871    N    0.26046000    0.00210996    0.03975999    -0.15250000
opls_750-872    N    0.36338992    0.99008000    0.05659989    -0.35720000
opls_750-873    N    0.06124992    0.80389004    0.12659010    -0.35710000
opls_750-874    N    0.94128992    0.19268000    0.44856999    -0.35710000
opls_239-875    N    0.99700000    0.25980000    0.54256999    -0.15250000
opls_750-876    N    0.50273008    0.13642996    0.06000000    -0.34500000
opls_750-877    N    0.19530000    0.05978996    0.62627997    -0.35720000
opls_750-878    N    0.80622000    0.94018008    0.94854988    -0.35710000
opls_239-879    N    0.73954000    0.99789004    0.03975999    -0.15240000
opls_146-880    H    0.57500000    0.96606996    0.60850992    0.11670000
opls_146-881    H    0.61404992    0.96974008    0.60526991    0.11120000
opls_146-882    H    0.60764992    0.00708000    0.51007992    0.11790000
opls_146-883    H    0.56871008    0.00276000    0.51248002    0.11400000
opls_144-884    H    0.63982000    0.01960000    0.53262001    0.10630000
opls_146-885    H    0.67326992    0.97037004    0.55149008    0.11360000
opls_146-886    H    0.67516992    0.03810996    0.53202011    0.11670000
opls_146-887    H    0.71236000    0.96905992    0.54956999    0.11600000
opls_146-888    H    0.71435008    0.03693004    0.53160995    0.11540000
opls_146-889    H    0.55247008    0.02348000    0.56373988    0.11620000
opls_146-890    H    0.02119008    0.67109004    0.05692008    0.11120000
opls_146-891    H    0.95362000    0.68073992    0.03978010    0.11100000
opls_146-892    H    0.02701008    0.70969004    0.05356999    0.11570000
opls_146-893    H    0.95933008    0.71926996    0.03777004    0.11560000
opls_146-894    H    0.95242992    0.79210996    0.56455994    0.11580000
opls_146-895    H    0.97071008    0.75117004    0.65110003    0.11390000
opls_144-896    H    0.94284000    0.77869992    0.66132998    0.10950000
opls_146-897    H    0.93624992    0.84584000    0.62216989    0.11820000
opls_146-898    H    0.91438992    0.87000000    0.65849987    0.11340000
opls_146-899    H    0.88822000    0.81589992    0.71402011    0.11430000
opls_146-900    H    0.91038000    0.79193004    0.67844006    0.11530000
opls_146-901    H    0.91392000    0.83782996    0.75470998    0.11620000
opls_146-902    H    0.99542992    0.73209004    0.61192988    0.11430000
opls_146-903    H    0.97649008    0.77258996    0.52516989    0.11530000
opls_146-904    H    0.08209008    0.12718008    0.91149008    0.11370000
opls_146-905    H    0.05998000    0.15053992    0.94873988    0.11600000
opls_146-906    H    0.08780000    0.20568000    0.89845991    0.11840000
opls_146-907    H    0.11008000    0.18241992    0.86183011    0.11120000
opls_144-908    H    0.05636992    0.21960000    0.91707012    0.09900000
opls_146-909    H    0.04307008    0.20110008    0.01065996    0.11430000
opls_146-910    H    0.03303008    0.25002996    0.93211987    0.11390000
opls_146-911    H    0.02214992    0.22170996    0.05330008    0.11790000
opls_146-912    H    0.01154000    0.27033992    0.97468007    0.11430000
opls_146-913    H    0.08526992    0.16153004    0.81759989    0.11490000
opls_146-914    H    0.47126000    0.07426996    0.51070998    0.11240000
opls_146-915    H    0.47691008    0.11282996    0.50974993    0.11560000
opls_146-916    H    0.51170000    0.10881004    0.60807992    0.11410000
opls_146-917    H    0.50543008    0.07001992    0.60964991    0.11670000
opls_144-918    H    0.46749008    0.14416000    0.53978989    0.10990000
opls_146-919    H    0.52623008    0.05101004    0.56108997    0.11500000
opls_146-920    H    0.79410000    0.04514008    0.06426991    0.11560000
opls_146-921    H    0.75072000    0.02908000    0.14900000    0.11550000
opls_144-922    H    0.77916992    0.05562008    0.16049008    0.09580000
opls_146-923    H    0.84686000    0.06285004    0.12246997    0.11550000
opls_146-924    H    0.87054000    0.08517004    0.15892988    0.11140000
opls_146-925    H    0.81564992    0.11028000    0.21393993    0.11390000
opls_146-926    H    0.79204000    0.08781004    0.17812993    0.11860000
opls_146-927    H    0.83787008    0.08557004    0.25520005    0.11500000
opls_146-928    H    0.73104000    0.00540000    0.10887007    0.11520000
opls_146-929    H    0.77406000    0.02205004    0.02411008    0.11540000
opls_146-930    H    0.12764000    0.91757004    0.41212993    0.11240000
opls_146-931    H    0.15144000    0.93933004    0.44926012    0.11360000
opls_146-932    H    0.20634000    0.91120000    0.39821011    0.11790000
opls_146-933    H    0.18262992    0.88934008    0.36162001    0.11220000
opls_144-934    H    0.22034000    0.94288000    0.41610003    0.10490000
opls_146-935    H    0.20374000    0.95409004    0.51135009    0.11560000
opls_146-936    H    0.24994992    0.96789004    0.42953003    0.11100000
opls_146-937    H    0.22421008    0.97581004    0.55301006    0.11570000
opls_146-938    H    0.27005008    0.99016000    0.47116989    0.11530000
opls_146-939    H    0.16146992    0.91486996    0.31821011    0.11920000
opls_146-940    H    0.44931008    0.05316000    0.56096004    0.11500000
opls_146-941    H    0.12810000    0.87236000    0.16430987    0.11170000
opls_146-942    H    0.12510000    0.87477004    0.40879995    0.11410000
opls_146-943    H    0.42500000    0.03393004    0.60850992    0.11670000
opls_146-944    H    0.38594992    0.03025992    0.60526991    0.11120000
opls_146-945    H    0.39235008    0.99292000    0.51007992    0.11790000
opls_146-946    H    0.43129008    0.99724000    0.51248002    0.11390000
opls_144-947    H    0.36018000    0.98040000    0.53262001    0.10630000
opls_146-948    H    0.32673008    0.02962996    0.55149008    0.11360000
opls_146-949    H    0.32482992    0.96189004    0.53202011    0.11680000
opls_146-950    H    0.28764000    0.03093992    0.54956999    0.11600000
opls_146-951    H    0.28564992    0.96306996    0.53160995    0.11550000
opls_146-952    H    0.44752992    0.97652000    0.56373988    0.11620000
opls_146-953    H    0.97880992    0.32890996    0.05692008    0.11130000
opls_146-954    H    0.04638000    0.31925992    0.03978010    0.11100000
opls_146-955    H    0.97299008    0.29030996    0.05356999    0.11570000
opls_146-956    H    0.04067008    0.28073004    0.03777004    0.11560000
opls_146-957    H    0.04757008    0.20789004    0.56455994    0.11570000
opls_146-958    H    0.02928992    0.24882996    0.65110003    0.11390000
opls_144-959    H    0.05716000    0.22130008    0.66132998    0.10950000
opls_146-960    H    0.06375008    0.15416000    0.62216989    0.11820000
opls_146-961    H    0.08560992    0.13000000    0.65849987    0.11350000
opls_146-962    H    0.11178000    0.18409992    0.71402011    0.11430000
opls_146-963    H    0.08962000    0.20806996    0.67844006    0.11520000
opls_146-964    H    0.08608000    0.16217004    0.75470998    0.11620000
opls_146-965    H    0.00457008    0.26790996    0.61192988    0.11430000
opls_146-966    H    0.02351008    0.22741004    0.52516989    0.11540000
opls_146-967    H    0.91790992    0.87282008    0.91149008    0.11370000
opls_146-968    H    0.94002000    0.84946008    0.94873988    0.11600000
opls_146-969    H    0.91220000    0.79432000    0.89845991    0.11840000
opls_146-970    H    0.88992000    0.81758008    0.86183011    0.11120000
opls_144-971    H    0.94362992    0.78040000    0.91707012    0.09900000
opls_146-972    H    0.95692992    0.79889992    0.01065996    0.11430000
opls_146-973    H    0.96697008    0.74997004    0.93211987    0.11400000
opls_146-974    H    0.97785008    0.77829004    0.05330008    0.11800000
opls_146-975    H    0.98846000    0.72965992    0.97468007    0.11430000
opls_146-976    H    0.91473008    0.83846996    0.81759989    0.11490000
opls_146-977    H    0.52874000    0.92573004    0.51070998    0.11240000
opls_146-978    H    0.52309008    0.88717004    0.50974993    0.11560000
opls_146-979    H    0.48830000    0.89118996    0.60807992    0.11390000
opls_146-980    H    0.49456992    0.92998008    0.60964991    0.11670000
opls_144-981    H    0.53250992    0.85584000    0.53978989    0.11000000
opls_146-982    H    0.47376992    0.94898996    0.56108997    0.11620000
opls_146-983    H    0.20590000    0.95485992    0.06426991    0.11560000
opls_146-984    H    0.24928000    0.97092000    0.14900000    0.11550000
opls_144-985    H    0.22083008    0.94437992    0.16049008    0.09580000
opls_146-986    H    0.15314000    0.93714996    0.12246997    0.11550000
opls_146-987    H    0.12946000    0.91482996    0.15892988    0.11120000
opls_146-988    H    0.18434992    0.88972000    0.21393993    0.11400000
opls_146-989    H    0.20796000    0.91218996    0.17812993    0.11860000
opls_146-990    H    0.16212992    0.91442996    0.25520005    0.11490000
opls_146-991    H    0.26896000    0.99460000    0.10887007    0.11520000
opls_146-992    H    0.22594000    0.97794996    0.02411008    0.11540000
opls_146-993    H    0.87236000    0.08242996    0.41212993    0.11240000
opls_146-994    H    0.84856000    0.06066996    0.44926012    0.11360000
opls_146-995    H    0.79366000    0.08880000    0.39821011    0.11790000
opls_146-996    H    0.81737008    0.11065992    0.36162001    0.11220000
opls_144-997    H    0.77966000    0.05712000    0.41610003    0.10480000
opls_146-998    H    0.79626000    0.04590996    0.51135009    0.11550000
opls_146-999    H    0.75004992    0.03210996    0.42953003    0.11100000
opls_146-1000    H    0.77578992    0.02418996    0.55301006    0.11570000
opls_146-1001    H    0.72995008    0.00984000    0.47116989    0.11530000
opls_146-1002    H    0.83852992    0.08513004    0.31821011    0.11920000
opls_146-1003    H    0.55069008    0.94684000    0.56096004    0.11500000
opls_146-1004    H    0.87190000    0.12764000    0.16430987    0.11170000
opls_146-1005    H    0.87490000    0.12522996    0.40879995    0.11410000
opls_146-1006    H    0.07500000    0.53393004    0.60850992    0.11670000
opls_146-1007    H    0.11404992    0.53025992    0.60526991    0.11120000
opls_146-1008    H    0.10765008    0.49292000    0.51007992    0.11790000
opls_146-1009    H    0.06870992    0.49724000    0.51248002    0.11390000
opls_144-1010    H    0.13982000    0.48040000    0.53262001    0.10630000
opls_146-1011    H    0.17327008    0.52962996    0.55149008    0.11360000
opls_146-1012    H    0.17516992    0.46189004    0.53202011    0.11670000
opls_146-1013    H    0.21236000    0.53094008    0.54956999    0.11600000
opls_146-1014    H    0.21434992    0.46306996    0.53160995    0.11540000
opls_146-1015    H    0.05246992    0.47652000    0.56373988    0.11620000
opls_146-1016    H    0.52119008    0.82890996    0.05692008    0.11120000
opls_146-1017    H    0.45362000    0.81926008    0.03978010    0.11100000
opls_146-1018    H    0.52700992    0.79030996    0.05356999    0.11570000
opls_146-1019    H    0.45932992    0.78073004    0.03777004    0.11560000
opls_146-1020    H    0.45243008    0.70789004    0.56455994    0.11570000
opls_146-1021    H    0.47070992    0.74882996    0.65110003    0.11390000
opls_144-1022    H    0.44284000    0.72130008    0.66132998    0.10950000
opls_146-1023    H    0.43624992    0.65416000    0.62216989    0.11820000
opls_146-1024    H    0.41438992    0.63000000    0.65849987    0.11340000
opls_146-1025    H    0.38822000    0.68410008    0.71402011    0.11430000
opls_146-1026    H    0.41038000    0.70806996    0.67844006    0.11520000
opls_146-1027    H    0.41392000    0.66217004    0.75470998    0.11620000
opls_146-1028    H    0.49543008    0.76790996    0.61192988    0.11430000
opls_146-1029    H    0.47649008    0.72741004    0.52516989    0.11530000
opls_146-1030    H    0.58209008    0.37282008    0.91149008    0.11370000
opls_146-1031    H    0.55998000    0.34946008    0.94873988    0.11600000
opls_146-1032    H    0.58780000    0.29432000    0.89845991    0.11840000
opls_146-1033    H    0.61008000    0.31758008    0.86183011    0.11120000
opls_144-1034    H    0.55637008    0.28040000    0.91707012    0.09900000
opls_146-1035    H    0.54307008    0.29889992    0.01065996    0.11430000
opls_146-1036    H    0.53302992    0.24997004    0.93211987    0.11390000
opls_146-1037    H    0.52214992    0.27829004    0.05330008    0.11790000
opls_146-1038    H    0.51154000    0.22966008    0.97468007    0.11430000
opls_146-1039    H    0.58526992    0.33846996    0.81759989    0.11490000
opls_146-1040    H    0.97126000    0.42573004    0.51070998    0.11240000
opls_146-1041    H    0.97690992    0.38717004    0.50974993    0.11570000
opls_146-1042    H    0.01170000    0.39118996    0.60807992    0.11390000
opls_146-1043    H    0.00542992    0.42998008    0.60964991    0.11670000
opls_144-1044    H    0.96749008    0.35584000    0.53978989    0.10990000
opls_146-1045    H    0.02623008    0.44898996    0.56108997    0.11500000
opls_146-1046    H    0.29410000    0.45485992    0.06426991    0.11570000
opls_146-1047    H    0.25072000    0.47092000    0.14900000    0.11550000
opls_144-1048    H    0.27917008    0.44437992    0.16049008    0.10360000
opls_146-1049    H    0.34686000    0.43714996    0.12246997    0.11550000
opls_146-1050    H    0.37054000    0.41482996    0.15892988    0.11130000
opls_146-1051    H    0.31564992    0.38972000    0.21393993    0.11390000
opls_146-1052    H    0.29204000    0.41218996    0.17812993    0.11860000
opls_146-1053    H    0.33787008    0.41442996    0.25520005    0.11490000
opls_146-1054    H    0.23104000    0.49460000    0.10887007    0.11520000
opls_146-1055    H    0.27406000    0.47794996    0.02411008    0.11540000
opls_146-1056    H    0.62764000    0.58242996    0.41212993    0.11240000
opls_146-1057    H    0.65144000    0.56066996    0.44926012    0.11360000
opls_146-1058    H    0.70634000    0.58880000    0.39821011    0.11790000
opls_146-1059    H    0.68262992    0.61065992    0.36162001    0.11220000
opls_144-1060    H    0.72034000    0.55712000    0.41610003    0.10480000
opls_146-1061    H    0.70374000    0.54590996    0.51135009    0.11550000
opls_146-1062    H    0.74995008    0.53210996    0.42953003    0.11100000
opls_146-1063    H    0.72421008    0.52418996    0.55301006    0.11570000
opls_146-1064    H    0.77004992    0.50984000    0.47116989    0.11530000
opls_146-1065    H    0.66147008    0.58513004    0.31821011    0.11920000
opls_146-1066    H    0.94930992    0.44684000    0.56096004    0.11500000
opls_146-1067    H    0.62810000    0.62764000    0.16430987    0.11180000
opls_146-1068    H    0.62510000    0.62522996    0.40879995    0.11410000
opls_146-1069    H    0.92500000    0.46606996    0.60850992    0.11670000
opls_146-1070    H    0.88595008    0.46974008    0.60526991    0.11130000
opls_146-1071    H    0.89235008    0.50708000    0.51007992    0.11790000
opls_146-1072    H    0.93128992    0.50276000    0.51248002    0.11390000
opls_144-1073    H    0.86018000    0.51960000    0.53262001    0.10630000
opls_146-1074    H    0.82673008    0.47037004    0.55149008    0.11360000
opls_146-1075    H    0.82483008    0.53810996    0.53202011    0.11670000
opls_146-1076    H    0.78764000    0.46905992    0.54956999    0.11600000
opls_146-1077    H    0.78564992    0.53693004    0.53160995    0.11540000
opls_146-1078    H    0.94752992    0.52348000    0.56373988    0.11630000
opls_146-1079    H    0.47881008    0.17109004    0.05692008    0.11120000
opls_146-1080    H    0.54638000    0.18074008    0.03978010    0.11100000
opls_146-1081    H    0.47299008    0.20969004    0.05356999    0.11570000
opls_146-1082    H    0.54066992    0.21926996    0.03777004    0.11560000
opls_146-1083    H    0.54757008    0.29210996    0.56455994    0.11570000
opls_146-1084    H    0.52928992    0.25117004    0.65110003    0.11390000
opls_144-1085    H    0.55716000    0.27869992    0.66132998    0.10950000
opls_146-1086    H    0.56375008    0.34584000    0.62216989    0.11820000
opls_146-1087    H    0.58561008    0.37000000    0.65849987    0.11340000
opls_146-1088    H    0.61178000    0.31589992    0.71402011    0.11430000
opls_146-1089    H    0.58962000    0.29193004    0.67844006    0.11530000
opls_146-1090    H    0.58608000    0.33782996    0.75470998    0.11620000
opls_146-1091    H    0.50456992    0.23209004    0.61192988    0.11440000
opls_146-1092    H    0.52350992    0.27258996    0.52516989    0.11530000
opls_146-1093    H    0.41791008    0.62717992    0.91149008    0.11370000
opls_146-1094    H    0.44002000    0.65053992    0.94873988    0.11600000
opls_146-1095    H    0.41220000    0.70568000    0.89845991    0.11840000
opls_146-1096    H    0.38992000    0.68241992    0.86183011    0.11120000
opls_144-1097    H    0.44362992    0.71960000    0.91707012    0.09900000
opls_146-1098    H    0.45693008    0.70110008    0.01065996    0.11430000
opls_146-1099    H    0.46697008    0.75002996    0.93211987    0.11390000
opls_146-1100    H    0.47785008    0.72170996    0.05330008    0.11790000
opls_146-1101    H    0.48846000    0.77034008    0.97468007    0.11440000
opls_146-1102    H    0.41473008    0.66153004    0.81759989    0.11490000
opls_146-1103    H    0.02874000    0.57426996    0.51070998    0.11240000
opls_146-1104    H    0.02308992    0.61282996    0.50974993    0.11560000
opls_146-1105    H    0.98830000    0.60881004    0.60807992    0.11390000
opls_146-1106    H    0.99457008    0.57001992    0.60964991    0.11670000
opls_144-1107    H    0.03250992    0.64416000    0.53978989    0.10990000
opls_146-1108    H    0.97376992    0.55101004    0.56108997    0.11500000
opls_146-1109    H    0.70590000    0.54514008    0.06426991    0.11560000
opls_146-1110    H    0.74928000    0.52908000    0.14900000    0.11550000
opls_144-1111    H    0.72083008    0.55562008    0.16049008    0.09580000
opls_146-1112    H    0.65314000    0.56285004    0.12246997    0.11560000
opls_146-1113    H    0.62946000    0.58517004    0.15892988    0.11120000
opls_146-1114    H    0.68435008    0.61028000    0.21393993    0.11390000
opls_146-1115    H    0.70796000    0.58781004    0.17812993    0.11860000
opls_146-1116    H    0.66212992    0.58557004    0.25520005    0.11490000
opls_146-1117    H    0.76896000    0.50540000    0.10887007    0.11520000
opls_146-1118    H    0.72594000    0.52205004    0.02411008    0.11540000
opls_146-1119    H    0.37236000    0.41757004    0.41212993    0.11240000
opls_146-1120    H    0.34856000    0.43933004    0.44926012    0.11360000
opls_146-1121    H    0.29366000    0.41120000    0.39821011    0.11790000
opls_146-1122    H    0.31737008    0.38933992    0.36162001    0.11220000
opls_144-1123    H    0.27966000    0.44288000    0.41610003    0.10480000
opls_146-1124    H    0.29626000    0.45409004    0.51135009    0.11560000
opls_146-1125    H    0.25005008    0.46789004    0.42953003    0.11100000
opls_146-1126    H    0.27579008    0.47581004    0.55301006    0.11570000
opls_146-1127    H    0.22994992    0.49016000    0.47116989    0.11530000
opls_146-1128    H    0.33852992    0.41486996    0.31821011    0.11920000
opls_146-1129    H    0.05068992    0.55316000    0.56096004    0.11510000
opls_146-1130    H    0.37190000    0.37236000    0.16430987    0.11170000
opls_146-1131    H    0.37490000    0.37477004    0.40879995    0.11410000
opls_146-1132    H    0.07500000    0.46606996    0.10850992    0.11670000
opls_146-1133    H    0.11404992    0.46974008    0.10526991    0.11120000
opls_146-1134    H    0.10765008    0.50708000    0.01007992    0.11790000
opls_146-1135    H    0.06870992    0.50276000    0.01248002    0.11390000
opls_144-1136    H    0.13982000    0.51960000    0.03262001    0.10630000
opls_146-1137    H    0.17327008    0.47037004    0.05149008    0.11370000
opls_146-1138    H    0.17516992    0.53810996    0.03202011    0.11670000
opls_146-1139    H    0.21236000    0.46905992    0.04956999    0.11600000
opls_146-1140    H    0.21434992    0.53693004    0.03160995    0.11540000
opls_146-1141    H    0.05246992    0.52348000    0.06373988    0.11620000
opls_146-1142    H    0.52119008    0.17109004    0.55692008    0.11120000
opls_146-1143    H    0.45362000    0.18074008    0.53978010    0.11100000
opls_146-1144    H    0.52700992    0.20969004    0.55356999    0.11570000
opls_146-1145    H    0.45932992    0.21926996    0.53777004    0.11560000
opls_146-1146    H    0.45243008    0.29210996    0.06455994    0.11570000
opls_146-1147    H    0.47070992    0.25117004    0.15110003    0.11390000
opls_144-1148    H    0.44284000    0.27869992    0.16132998    0.10950000
opls_146-1149    H    0.43624992    0.34584000    0.12216989    0.11820000
opls_146-1150    H    0.41438992    0.37000000    0.15850013    0.11350000
opls_146-1151    H    0.38822000    0.31589992    0.21402011    0.11430000
opls_146-1152    H    0.41038000    0.29193004    0.17844006    0.11520000
opls_146-1153    H    0.41392000    0.33782996    0.25470998    0.11630000
opls_146-1154    H    0.49543008    0.23209004    0.11192988    0.11430000
opls_146-1155    H    0.47649008    0.27258996    0.02516989    0.11530000
opls_146-1156    H    0.58209008    0.62717992    0.41149008    0.11370000
opls_146-1157    H    0.55998000    0.65053992    0.44873988    0.11600000
opls_146-1158    H    0.58780000    0.70568000    0.39845991    0.11840000
opls_146-1159    H    0.61008000    0.68241992    0.36183011    0.11120000
opls_144-1160    H    0.55637008    0.71960000    0.41707012    0.09900000
opls_146-1161    H    0.54307008    0.70110008    0.51065996    0.11430000
opls_146-1162    H    0.53302992    0.75002996    0.43211987    0.11390000
opls_146-1163    H    0.52214992    0.72170996    0.55330008    0.11790000
opls_146-1164    H    0.51154000    0.77034008    0.47468007    0.11440000
opls_146-1165    H    0.58526992    0.66153004    0.31759989    0.11490000
opls_146-1166    H    0.97126000    0.57426996    0.01070998    0.11240000
opls_146-1167    H    0.97690992    0.61282996    0.00974993    0.11560000
opls_146-1168    H    0.01170000    0.60881004    0.10807992    0.11390000
opls_146-1169    H    0.00542992    0.57001992    0.10964991    0.11670000
opls_144-1170    H    0.96749008    0.64416000    0.03978989    0.10990000
opls_146-1171    H    0.02623008    0.55101004    0.06108997    0.11500000
opls_146-1172    H    0.29410000    0.54514008    0.56426991    0.11560000
opls_146-1173    H    0.25072000    0.52908000    0.64900000    0.11550000
opls_144-1174    H    0.27917008    0.55562008    0.66049008    0.10360000
opls_146-1175    H    0.34686000    0.56285004    0.62246997    0.11550000
opls_146-1176    H    0.37054000    0.58517004    0.65892988    0.11120000
opls_146-1177    H    0.31564992    0.61028000    0.71393993    0.11390000
opls_146-1178    H    0.29204000    0.58781004    0.67812993    0.11860000
opls_146-1179    H    0.33787008    0.58557004    0.75520005    0.11490000
opls_146-1180    H    0.23104000    0.50540000    0.60887007    0.11530000
opls_146-1181    H    0.27406000    0.52205004    0.52411008    0.11540000
opls_146-1182    H    0.62764000    0.41757004    0.91212993    0.11240000
opls_146-1183    H    0.65144000    0.43933004    0.94926012    0.11370000
opls_146-1184    H    0.70634000    0.41120000    0.89821011    0.11790000
opls_146-1185    H    0.68262992    0.38933992    0.86162001    0.11220000
opls_144-1186    H    0.72034000    0.44288000    0.91610003    0.10490000
opls_146-1187    H    0.70374000    0.45409004    0.01135009    0.11550000
opls_146-1188    H    0.74995008    0.46789004    0.92953003    0.11100000
opls_146-1189    H    0.72421008    0.47581004    0.05301006    0.11570000
opls_146-1190    H    0.77004992    0.49016000    0.97116989    0.11530000
opls_146-1191    H    0.66147008    0.41486996    0.81821011    0.11920000
opls_146-1192    H    0.94930992    0.55316000    0.06096004    0.11500000
opls_146-1193    H    0.62810000    0.37236000    0.66430987    0.11170000
opls_146-1194    H    0.62510000    0.37477004    0.90879995    0.11410000
opls_146-1195    H    0.92500000    0.53393004    0.10850992    0.11670000
opls_146-1196    H    0.88595008    0.53025992    0.10526991    0.11120000
opls_146-1197    H    0.89235008    0.49292000    0.01007992    0.11790000
opls_146-1198    H    0.93128992    0.49724000    0.01248002    0.11390000
opls_144-1199    H    0.86018000    0.48040000    0.03262001    0.10630000
opls_146-1200    H    0.82673008    0.52962996    0.05149008    0.11360000
opls_146-1201    H    0.82483008    0.46189004    0.03202011    0.11670000
opls_146-1202    H    0.78764000    0.53094008    0.04956999    0.11600000
opls_146-1203    H    0.78564992    0.46306996    0.03160995    0.11550000
opls_146-1204    H    0.94752992    0.47652000    0.06373988    0.11630000
opls_146-1205    H    0.47881008    0.82890996    0.55692008    0.11120000
opls_146-1206    H    0.54638000    0.81926008    0.53978010    0.11100000
opls_146-1207    H    0.47299008    0.79030996    0.55356999    0.11570000
opls_146-1208    H    0.54066992    0.78073004    0.53777004    0.11560000
opls_146-1209    H    0.54757008    0.70789004    0.06455994    0.11570000
opls_146-1210    H    0.52928992    0.74882996    0.15110003    0.11390000
opls_144-1211    H    0.55716000    0.72130008    0.16132998    0.10950000
opls_146-1212    H    0.56375008    0.65416000    0.12216989    0.11820000
opls_146-1213    H    0.58561008    0.63000000    0.15850013    0.11340000
opls_146-1214    H    0.61178000    0.68410008    0.21402011    0.11430000
opls_146-1215    H    0.58962000    0.70806996    0.17844006    0.11520000
opls_146-1216    H    0.58608000    0.66217004    0.25470998    0.11620000
opls_146-1217    H    0.50456992    0.76790996    0.11192988    0.11430000
opls_146-1218    H    0.52350992    0.72741004    0.02516989    0.11530000
opls_146-1219    H    0.41791008    0.37282008    0.41149008    0.11390000
opls_146-1220    H    0.44002000    0.34946008    0.44873988    0.11600000
opls_146-1221    H    0.41220000    0.29432000    0.39845991    0.11840000
opls_146-1222    H    0.38992000    0.31758008    0.36183011    0.11120000
opls_144-1223    H    0.44362992    0.28040000    0.41707012    0.09900000
opls_146-1224    H    0.45693008    0.29889992    0.51065996    0.11430000
opls_146-1225    H    0.46697008    0.24997004    0.43211987    0.11390000
opls_146-1226    H    0.47785008    0.27829004    0.55330008    0.11800000
opls_146-1227    H    0.48846000    0.22966008    0.47468007    0.11430000
opls_146-1228    H    0.41473008    0.33846996    0.31759989    0.11490000
opls_146-1229    H    0.02874000    0.42573004    0.01070998    0.11240000
opls_146-1230    H    0.02308992    0.38717004    0.00974993    0.11560000
opls_146-1231    H    0.98830000    0.39118996    0.10807992    0.11390000
opls_146-1232    H    0.99457008    0.42998008    0.10964991    0.11670000
opls_144-1233    H    0.03250992    0.35584000    0.03978989    0.10990000
opls_146-1234    H    0.97376992    0.44898996    0.06108997    0.11500000
opls_146-1235    H    0.70590000    0.45485992    0.56426991    0.11560000
opls_146-1236    H    0.74928000    0.47092000    0.64900000    0.11550000
opls_144-1237    H    0.72083008    0.44437992    0.66049008    0.09580000
opls_146-1238    H    0.65314000    0.43714996    0.62246997    0.11550000
opls_146-1239    H    0.62946000    0.41482996    0.65892988    0.11120000
opls_146-1240    H    0.68435008    0.38972000    0.71393993    0.11390000
opls_146-1241    H    0.70796000    0.41218996    0.67812993    0.11860000
opls_146-1242    H    0.66212992    0.41442996    0.75520005    0.11490000
opls_146-1243    H    0.76896000    0.49460000    0.60887007    0.11520000
opls_146-1244    H    0.72594000    0.47794996    0.52411008    0.11540000
opls_146-1245    H    0.37236000    0.58242996    0.91212993    0.11240000
opls_146-1246    H    0.34856000    0.56066996    0.94926012    0.11360000
opls_146-1247    H    0.29366000    0.58880000    0.89821011    0.11790000
opls_146-1248    H    0.31737008    0.61065992    0.86162001    0.11220000
opls_144-1249    H    0.27966000    0.55712000    0.91610003    0.10480000
opls_146-1250    H    0.29626000    0.54590996    0.01135009    0.11550000
opls_146-1251    H    0.25005008    0.53210996    0.92953003    0.11100000
opls_146-1252    H    0.27579008    0.52418996    0.05301006    0.11570000
opls_146-1253    H    0.22994992    0.50984000    0.97116989    0.11530000
opls_146-1254    H    0.33852992    0.58513004    0.81821011    0.11920000
opls_146-1255    H    0.05068992    0.44684000    0.06096004    0.11500000
opls_146-1256    H    0.37190000    0.62764000    0.66430987    0.11170000
opls_146-1257    H    0.37490000    0.62522996    0.90879995    0.11410000
opls_146-1258    H    0.57500000    0.03393004    0.10850992    0.11670000
opls_146-1259    H    0.61404992    0.03025992    0.10526991    0.11120000
opls_146-1260    H    0.60764992    0.99292000    0.01007992    0.11790000
opls_146-1261    H    0.56871008    0.99724000    0.01248002    0.11400000
opls_144-1262    H    0.63982000    0.98040000    0.03262001    0.10630000
opls_146-1263    H    0.67326992    0.02962996    0.05149008    0.11360000
opls_146-1264    H    0.67516992    0.96189004    0.03202011    0.11670000
opls_146-1265    H    0.71236000    0.03093992    0.04956999    0.11600000
opls_146-1266    H    0.71435008    0.96306996    0.03160995    0.11540000
opls_146-1267    H    0.55247008    0.97652000    0.06373988    0.11620000
opls_146-1268    H    0.02119008    0.32890996    0.55692008    0.11120000
opls_146-1269    H    0.95362000    0.31925992    0.53978010    0.11100000
opls_146-1270    H    0.02701008    0.29030996    0.55356999    0.11580000
opls_146-1271    H    0.95933008    0.28073004    0.53777004    0.11560000
opls_146-1272    H    0.95242992    0.20789004    0.06455994    0.11570000
opls_146-1273    H    0.97071008    0.24882996    0.15110003    0.11390000
opls_144-1274    H    0.94284000    0.22130008    0.16132998    0.10960000
opls_146-1275    H    0.93624992    0.15416000    0.12216989    0.11820000
opls_146-1276    H    0.91438992    0.13000000    0.15850013    0.11350000
opls_146-1277    H    0.88822000    0.18409992    0.21402011    0.11430000
opls_146-1278    H    0.91038000    0.20806996    0.17844006    0.11520000
opls_146-1279    H    0.91392000    0.16217004    0.25470998    0.11620000
opls_146-1280    H    0.99542992    0.26790996    0.11192988    0.11430000
opls_146-1281    H    0.97649008    0.22741004    0.02516989    0.11530000
opls_146-1282    H    0.08209008    0.87282008    0.41149008    0.11370000
opls_146-1283    H    0.05998000    0.84946008    0.44873988    0.11610000
opls_146-1284    H    0.08780000    0.79432000    0.39845991    0.11840000
opls_146-1285    H    0.11008000    0.81758008    0.36183011    0.11120000
opls_144-1286    H    0.05636992    0.78040000    0.41707012    0.09900000
opls_146-1287    H    0.04307008    0.79889992    0.51065996    0.11430000
opls_146-1288    H    0.03303008    0.74997004    0.43211987    0.11390000
opls_146-1289    H    0.02214992    0.77829004    0.55330008    0.11790000
opls_146-1290    H    0.01154000    0.72965992    0.47468007    0.11430000
opls_146-1291    H    0.08526992    0.83846996    0.31759989    0.11490000
opls_146-1292    H    0.47126000    0.92573004    0.01070998    0.11240000
opls_146-1293    H    0.47691008    0.88717004    0.00974993    0.11560000
opls_146-1294    H    0.51170000    0.89118996    0.10807992    0.11390000
opls_146-1295    H    0.50543008    0.92998008    0.10964991    0.11670000
opls_144-1296    H    0.46749008    0.85584000    0.03978989    0.10990000
opls_146-1297    H    0.52623008    0.94898996    0.06108997    0.11500000
opls_146-1298    H    0.79410000    0.95485992    0.56426991    0.11570000
opls_146-1299    H    0.75072000    0.97092000    0.64900000    0.11560000
opls_144-1300    H    0.77916992    0.94437992    0.66049008    0.09580000
opls_146-1301    H    0.84686000    0.93714996    0.62246997    0.11550000
opls_146-1302    H    0.87054000    0.91482996    0.65892988    0.11120000
opls_146-1303    H    0.81564992    0.88972000    0.71393993    0.11390000
opls_146-1304    H    0.79204000    0.91218996    0.67812993    0.11860000
opls_146-1305    H    0.83787008    0.91442996    0.75520005    0.11490000
opls_146-1306    H    0.73104000    0.99460000    0.60887007    0.11520000
opls_146-1307    H    0.77406000    0.97794996    0.52411008    0.11540000
opls_146-1308    H    0.12764000    0.08242996    0.91212993    0.11240000
opls_146-1309    H    0.15144000    0.06066996    0.94926012    0.11360000
opls_146-1310    H    0.20634000    0.08880000    0.89821011    0.11790000
opls_146-1311    H    0.18262992    0.11065992    0.86162001    0.11220000
opls_144-1312    H    0.22034000    0.05712000    0.91610003    0.10490000
opls_146-1313    H    0.20374000    0.04590996    0.01135009    0.11550000
opls_146-1314    H    0.24994992    0.03210996    0.92953003    0.11100000
opls_146-1315    H    0.22421008    0.02418996    0.05301006    0.11570000
opls_146-1316    H    0.27005008    0.00984000    0.97116989    0.11530000
opls_146-1317    H    0.16146992    0.08513004    0.81821011    0.11930000
opls_146-1318    H    0.44931008    0.94684000    0.06096004    0.11500000
opls_146-1319    H    0.12810000    0.12764000    0.66430987    0.11170000
opls_146-1320    H    0.12510000    0.12522996    0.90879995    0.11410000
opls_146-1321    H    0.42500000    0.96606996    0.10850992    0.11670000
opls_146-1322    H    0.38594992    0.96974008    0.10526991    0.11120000
opls_146-1323    H    0.39235008    0.00708000    0.01007992    0.11790000
opls_146-1324    H    0.43129008    0.00276000    0.01248002    0.11390000
opls_144-1325    H    0.36018000    0.01960000    0.03262001    0.10630000
opls_146-1326    H    0.32673008    0.97037004    0.05149008    0.11370000
opls_146-1327    H    0.32482992    0.03810996    0.03202011    0.11670000
opls_146-1328    H    0.28764000    0.96905992    0.04956999    0.11610000
opls_146-1329    H    0.28564992    0.03693004    0.03160995    0.11540000
opls_146-1330    H    0.44752992    0.02348000    0.06373988    0.11620000
opls_146-1331    H    0.97880992    0.67109004    0.55692008    0.11120000
opls_146-1332    H    0.04638000    0.68073992    0.53978010    0.11100000
opls_146-1333    H    0.97299008    0.70969004    0.55356999    0.11570000
opls_146-1334    H    0.04067008    0.71926996    0.53777004    0.11560000
opls_146-1335    H    0.04757008    0.79210996    0.06455994    0.11570000
opls_146-1336    H    0.02928992    0.75117004    0.15110003    0.11390000
opls_144-1337    H    0.05716000    0.77869992    0.16132998    0.10950000
opls_146-1338    H    0.06375008    0.84584000    0.12216989    0.11820000
opls_146-1339    H    0.08560992    0.87000000    0.15850013    0.11340000
opls_146-1340    H    0.11178000    0.81589992    0.21402011    0.11430000
opls_146-1341    H    0.08962000    0.79193004    0.17844006    0.11520000
opls_146-1342    H    0.08608000    0.83782996    0.25470998    0.11620000
opls_146-1343    H    0.00457008    0.73209004    0.11192988    0.11430000
opls_146-1344    H    0.02351008    0.77258996    0.02516989    0.11530000
opls_146-1345    H    0.91790992    0.12718008    0.41149008    0.11370000
opls_146-1346    H    0.94002000    0.15053992    0.44873988    0.11610000
opls_146-1347    H    0.91220000    0.20568000    0.39845991    0.11840000
opls_146-1348    H    0.88992000    0.18241992    0.36183011    0.11140000
opls_144-1349    H    0.94362992    0.21960000    0.41707012    0.09900000
opls_146-1350    H    0.95692992    0.20110008    0.51065996    0.11430000
opls_146-1351    H    0.96697008    0.25002996    0.43211987    0.11400000
opls_146-1352    H    0.97785008    0.22170996    0.55330008    0.11790000
opls_146-1353    H    0.98846000    0.27033992    0.47468007    0.11430000
opls_146-1354    H    0.91473008    0.16153004    0.31759989    0.11490000
opls_146-1355    H    0.52874000    0.07426996    0.01070998    0.11240000
opls_146-1356    H    0.52309008    0.11282996    0.00974993    0.11560000
opls_146-1357    H    0.48830000    0.10881004    0.10807992    0.11390000
opls_146-1358    H    0.49456992    0.07001992    0.10964991    0.11670000
opls_144-1359    H    0.53250992    0.14416000    0.03978989    0.10990000
opls_146-1360    H    0.47376992    0.05101004    0.06108997    0.11620000
opls_146-1361    H    0.20590000    0.04514008    0.56426991    0.11560000
opls_146-1362    H    0.24928000    0.02908000    0.64900000    0.11550000
opls_144-1363    H    0.22083008    0.05562008    0.66049008    0.09580000
opls_146-1364    H    0.15314000    0.06285004    0.62246997    0.11550000
opls_146-1365    H    0.12946000    0.08517004    0.65892988    0.11120000
opls_146-1366    H    0.18434992    0.11028000    0.71393993    0.11400000
opls_146-1367    H    0.20796000    0.08781004    0.67812993    0.11860000
opls_146-1368    H    0.16212992    0.08557004    0.75520005    0.11490000
opls_146-1369    H    0.26896000    0.00540000    0.60887007    0.11520000
opls_146-1370    H    0.22594000    0.02205004    0.52411008    0.11540000
opls_146-1371    H    0.87236000    0.91757004    0.91212993    0.11240000
opls_146-1372    H    0.84856000    0.93933004    0.94926012    0.11360000
opls_146-1373    H    0.79366000    0.91120000    0.89821011    0.11790000
opls_146-1374    H    0.81737008    0.88934008    0.86162001    0.11220000
opls_144-1375    H    0.77966000    0.94288000    0.91610003    0.10480000
opls_146-1376    H    0.79626000    0.95409004    0.01135009    0.11550000
opls_146-1377    H    0.75004992    0.96789004    0.92953003    0.11100000
opls_146-1378    H    0.77578992    0.97581004    0.05301006    0.11570000
opls_146-1379    H    0.72995008    0.99016000    0.97116989    0.11530000
opls_146-1380    H    0.83852992    0.91486996    0.81821011    0.11920000
opls_146-1381    H    0.55069008    0.05316000    0.06096004    0.11500000
opls_146-1382    H    0.87190000    0.87236000    0.66430987    0.11180000
opls_146-1383    H    0.87490000    0.87477004    0.90879995    0.11410000
