#======================================================================
# Crystal Data Generated By AuToFF
#----------------------------------------------------------------------

data_AuToFF_phase_1

_cell_length_a                         47.3196
_cell_length_b                         90.9675
_cell_length_c                         27.9995
_cell_angle_alpha                      90.00
_cell_angle_beta                       88.20
_cell_angle_gamma                      90.00
_symmetry_space_group_name_H-M_alt     'P 1'
_symmetry_space_group_IT_number        1

loop_
_space_group_symop_operation_xyz
   'x, y, z'

loop_
   _atom_site_label
   _atom_site_type_symbol
   _atom_site_fract_x
   _atom_site_fract_y
   _atom_site_fract_z
   _atom_site_charge
opls_700-0    C    0.61187015    0.73555995    0.92579029    0.07650000
opls_145-1    C    0.08832015    0.24103004    0.95155024    -0.12940000
opls_145-2    C    0.07783006    0.23347998    0.99154032    -0.17160000
opls_145-3    C    0.59047009    0.72033001    0.00527984    0.18370000
opls_145-4    C    0.61368998    0.71469998    0.97869018    -0.17130000
opls_145-5    C    0.62435010    0.72231995    0.93908029    -0.13880000
opls_142-6    C    0.58256990    0.69984995    0.05804002    0.07230000
opls_700-7    C    0.57696005    0.69454003    0.10663986    0.05660000
opls_145-8    C    0.57124996    0.67964998    0.11450995    -0.12480000
opls_145-9    C    0.56686996    0.67442999    0.16093010    -0.12410000
opls_700-10    C    0.56860007    0.68404001    0.20005010    0.06840000
opls_145-11    C    0.57471992    0.69892995    0.19192988    -0.13320000
opls_145-12    C    0.57862996    0.70416995    0.14561013    -0.12920000
opls_700-13    C    0.56384996    0.67861995    0.24924988    0.06720000
opls_145-14    C    0.04933992    0.18735999    0.28343021    -0.12640000
opls_145-15    C    0.04425001    0.18210998    0.32958022    -0.18560000
opls_916-16    C    0.55314995    0.66800000    0.34166997    0.16130000
opls_145-17    C    0.56801992    0.65932998    0.30817000    -0.16140000
opls_145-18    C    0.57351997    0.66464001    0.26225010    -0.12830000
opls_700-19    C    0.35234012    0.48625003    0.40157023    0.06460000
opls_145-20    C    0.84836008    0.97923995    0.44579998    -0.12640000
opls_145-21    C    0.83459013    0.96568005    0.44845991    -0.17830000
opls_145-22    C    0.82466999    0.95912002    0.40661995    0.17750000
opls_145-23    C    0.32828012    0.46637997    0.36285009    -0.18490000
opls_145-24    C    0.34204003    0.47985995    0.36023017    -0.13870000
opls_142-25    C    0.30613999    0.43623998    0.44159997    0.07270000
opls_700-26    C    0.29471998    0.42154000    0.43225020    0.04980000
opls_145-27    C    0.29122001    0.41671003    0.38511003    -0.12670000
opls_145-28    C    0.28089993    0.40271998    0.37624014    -0.13180000
opls_700-29    C    0.27385006    0.39327001    0.41423992    0.06480000
opls_145-30    C    0.77723012    0.89806997    0.46143011    -0.13130000
opls_145-31    C    0.78762012    0.91213005    0.47037004    -0.12290000
opls_700-32    C    0.26240007    0.37856004    0.40456998    0.06390000
opls_145-33    C    0.27153999    0.36636997    0.43053003    -0.11970000
opls_145-34    C    0.25929006    0.35267002    0.42373013    -0.17680000
opls_916-35    C    0.23758013    0.35095996    0.39116992    0.15950000
opls_145-36    C    0.72934001    0.86295996    0.36354008    -0.17670000
opls_145-37    C    0.74166996    0.87669003    0.37022993    -0.12470000
opls_141-38    C    0.13961003    0.25614005    0.89344018    0.00630000
opls_700-39    C    0.14540013    0.26130002    0.94172021    0.07790000
opls_145-40    C    0.66759006    0.75514002    0.96686021    -0.12580000
opls_145-41    C    0.67439992    0.76084997    0.01129006    -0.17890000
opls_145-42    C    0.15892993    0.27262000    0.03095010    0.17980000
opls_145-43    C    0.13654006    0.27866996    0.00546994    -0.17890000
opls_145-44    C    0.12964014    0.27289999    0.96144029    -0.13520000
opls_142-45    C    0.15137003    0.28665996    0.10309019    0.07560000
opls_700-46    C    0.16255000    0.29418001    0.14463999    0.05430000
opls_145-47    C    0.14510008    0.30420997    0.16935012    -0.13180000
opls_145-48    C    0.15517008    0.31193998    0.20805990    -0.11990000
opls_700-49    C    0.18287992    0.30969005    0.22294001    0.06390000
opls_145-50    C    0.20048001    0.29969000    0.19803014    -0.12470000
opls_145-51    C    0.19039991    0.29197999    0.15901019    -0.12470000
opls_700-52    C    0.19280999    0.31732003    0.26561003    0.06580000
opls_145-53    C    0.71999011    0.82349004    0.26620998    -0.12410000
opls_145-54    C    0.72927001    0.83037997    0.30733993    -0.17950000
opls_916-55    C    0.21155013    0.33113002    0.34840020    0.15540000
opls_145-56    C    0.18429008    0.32510996    0.34745007    -0.17060000
opls_145-57    C    0.17504010    0.31825003    0.30652987    -0.13210000
opls_700-58    C    0.15178998    0.73534999    0.85356016    0.07580000
opls_145-59    C    0.67485010    0.24093000    0.82680005    -0.12940000
opls_145-60    C    0.68502012    0.23337005    0.78660022    -0.17160000
opls_145-61    C    0.17254998    0.72010004    0.77359000    0.18360000
opls_145-62    C    0.14989011    0.71433996    0.80126022    -0.17230000
opls_145-63    C    0.13956004    0.72196004    0.84110022    -0.13880000
opls_142-64    C    0.17996002    0.69964998    0.72038996    0.07530000
opls_700-65    C    0.18531001    0.69438997    0.67165005    0.05320000
opls_145-66    C    0.19146997    0.67954995    0.66360022    -0.12480000
opls_145-67    C    0.19600998    0.67441999    0.61711003    -0.12300000
opls_700-68    C    0.19399013    0.68404001    0.57807008    0.06720000
opls_145-69    C    0.18722009    0.69885003    0.58638004    -0.12870000
opls_145-70    C    0.18315997    0.70402001    0.63277018    -0.12200000
opls_700-71    C    0.19947013    0.67874999    0.52884992    0.06520000
opls_145-72    C    0.71380007    0.18774002    0.49515020    -0.12450000
opls_145-73    C    0.71997997    0.18256004    0.44922995    -0.17160000
opls_916-74    C    0.21238993    0.66824998    0.43684004    0.16340000
opls_145-75    C    0.19754010    0.65935999    0.46979010    -0.17350000
opls_145-76    C    0.19095995    0.66458999    0.51546022    -0.12420000
opls_700-77    C    0.41222994    0.48625003    0.38198022    0.06490000
opls_145-78    C    0.91622003    0.97927996    0.33771009    -0.12640000
opls_145-79    C    0.93000008    0.96571995    0.33495011    -0.17730000
opls_145-80    C    0.93993002    0.95913002    0.37674004    0.17750000
opls_145-81    C    0.43632995    0.46635996    0.42055994    -0.18490000
opls_145-82    C    0.42256013    0.47984005    0.42326989    -0.13300000
opls_142-83    C    0.45840006    0.43628999    0.34152990    0.07560000
opls_700-84    C    0.46980012    0.42158001    0.35059990    0.04980000
opls_145-85    C    0.47345006    0.41667002    0.39763000    -0.12480000
opls_145-86    C    0.48386012    0.40265996    0.40615007    -0.11870000
opls_700-87    C    0.49084001    0.39330002    0.36789016    0.06470000
opls_145-88    C    0.98725001    0.89817001    0.32083004    -0.12600000
opls_145-89    C    0.97678002    0.91222997    0.31225994    -0.12640000
opls_700-90    C    0.50267997    0.37864996    0.37701018    0.06480000
opls_145-91    C    0.49364008    0.36647000    0.35091005    -0.12230000
opls_145-92    C    0.50651008    0.35287998    0.35665013    -0.17480000
opls_916-93    C    0.52878013    0.35127996    0.38817017    0.15830000
opls_145-94    C    0.03691010    0.86326996    0.41603012    -0.17830000
opls_145-95    C    0.02390012    0.87687998    0.41051016    -0.12410000
opls_141-96    C    0.62416001    0.25597999    0.88592027    0.00720000
opls_700-97    C    0.61833013    0.26115997    0.83770027    0.07790000
opls_145-98    C    0.09639998    0.75486003    0.81225012    -0.12590000
opls_145-99    C    0.08950014    0.76061000    0.76791996    -0.17670000
opls_145-100    C    0.60465012    0.27253997    0.74865011    0.18560000
opls_145-101    C    0.62672996    0.27876000    0.77446009    -0.17480000
opls_145-102    C    0.63369015    0.27297002    0.81842006    -0.13560000
opls_142-103    C    0.61255008    0.28638997    0.67635995    0.07530000
opls_700-104    C    0.60168995    0.29392003    0.63460004    0.05390000
opls_145-105    C    0.61992011    0.30323005    0.60849027    -0.14530000
opls_145-106    C    0.61025997    0.31092995    0.56939993    -0.11560000
opls_700-107    C    0.58216002    0.30940995    0.55568006    0.06460000
opls_145-108    C    0.56374011    0.30016995    0.58204997    -0.12420000
opls_145-109    C    0.57344008    0.29246005    0.62134005    -0.12690000
opls_700-110    C    0.57261010    0.31703004    0.51282995    0.06480000
opls_145-111    C    0.04658002    0.82441004    0.51314011    -0.12470000
opls_145-112    C    0.03783000    0.83149004    0.47204017    -0.17090000
opls_916-113    C    0.55478999    0.33123005    0.43009016    0.15570000
opls_145-114    C    0.58089007    0.32390997    0.43005014    -0.17120000
opls_145-115    C    0.58969014    0.31686998    0.47096999    -0.13310000
opls_141-116    C    0.36837012    0.50000000    0.39779008    -0.00240000
opls_141-117    C    0.39619996    0.50000000    0.38585005    -0.00240000
opls_700-118    C    0.38813006    0.73555995    0.07421007    0.07650000
opls_145-119    C    0.91168006    0.24103004    0.04845012    -0.12940000
opls_145-120    C    0.92216993    0.23347998    0.00846004    -0.17160000
opls_145-121    C    0.40953013    0.72033001    0.99472016    0.18370000
opls_145-122    C    0.38631001    0.71469998    0.02131018    -0.17130000
opls_145-123    C    0.37565011    0.72231995    0.06092006    -0.13880000
opls_142-124    C    0.41743010    0.69984995    0.94195998    0.07230000
opls_700-125    C    0.42304016    0.69454003    0.89336014    0.05650000
opls_145-126    C    0.42875004    0.67964998    0.88549005    -0.12480000
opls_145-127    C    0.43313003    0.67442999    0.83907025    -0.12410000
opls_700-128    C    0.43140013    0.68404001    0.79995026    0.06840000
opls_145-129    C    0.42528008    0.69892995    0.80807012    -0.13740000
opls_145-130    C    0.42137003    0.70416995    0.85439023    -0.12920000
opls_700-131    C    0.43615004    0.67861995    0.75075012    0.06720000
opls_145-132    C    0.95066008    0.18735999    0.71657015    -0.12640000
opls_145-133    C    0.95574998    0.18210998    0.67042013    -0.18560000
opls_916-134    C    0.44685005    0.66800000    0.65833003    0.16130000
opls_145-135    C    0.43198008    0.65932998    0.69183000    -0.16140000
opls_145-136    C    0.42648003    0.66464001    0.73775026    -0.12840000
opls_700-137    C    0.64766008    0.48625003    0.59843013    0.06460000
opls_145-138    C    0.15164014    0.97923995    0.55420002    -0.12640000
opls_145-139    C    0.16541008    0.96568005    0.55154009    -0.17830000
opls_145-140    C    0.17533001    0.95912002    0.59338005    0.18710000
opls_145-141    C    0.67172008    0.46637997    0.63715027    -0.18490000
opls_145-142    C    0.65795997    0.47985995    0.63977018    -0.13860000
opls_142-143    C    0.69386001    0.43623998    0.55840003    0.07270000
opls_700-144    C    0.70528001    0.42154000    0.56775016    0.04980000
opls_145-145    C    0.70877999    0.41671003    0.61488997    -0.12670000
opls_145-146    C    0.71910007    0.40271998    0.62376021    -0.13180000
opls_700-147    C    0.72614994    0.39327001    0.58576008    0.06480000
opls_145-148    C    0.22277009    0.89806997    0.53857025    -0.13150000
opls_145-149    C    0.21238009    0.91213005    0.52962996    -0.12300000
opls_700-150    C    0.73760014    0.37856004    0.59543002    0.06390000
opls_145-151    C    0.72846001    0.36636997    0.56946997    -0.11990000
opls_145-152    C    0.74071015    0.35267002    0.57627023    -0.17680000
opls_916-153    C    0.76242008    0.35095996    0.60883008    0.15950000
opls_145-154    C    0.27065999    0.86295996    0.63646028    -0.17660000
opls_145-155    C    0.25833004    0.87669003    0.62977007    -0.12470000
opls_141-156    C    0.86038996    0.25614005    0.10656017    0.00630000
opls_700-157    C    0.85460007    0.26130002    0.05828014    0.07790000
opls_145-158    C    0.33240994    0.75514002    0.03314015    -0.12580000
opls_145-159    C    0.32560007    0.76084997    0.98871030    -0.17880000
opls_145-160    C    0.84107007    0.27262000    0.96905025    0.17990000
opls_145-161    C    0.86346015    0.27866996    0.99453006    -0.17890000
opls_145-162    C    0.87036007    0.27289999    0.03856006    -0.13520000
opls_142-163    C    0.84862996    0.28665996    0.89691017    0.07560000
opls_700-164    C    0.83745000    0.29418001    0.85536001    0.05430000
opls_145-165    C    0.85490013    0.30420997    0.83065024    -0.13170000
opls_145-166    C    0.84483013    0.31193998    0.79194010    -0.11990000
opls_700-167    C    0.81712008    0.30969005    0.77705999    0.06390000
opls_145-168    C    0.79951999    0.29969000    0.80197022    -0.12460000
opls_145-169    C    0.80960008    0.29197999    0.84099016    -0.12470000
opls_700-170    C    0.80719001    0.31732003    0.73438997    0.06570000
opls_145-171    C    0.28001010    0.82349004    0.73379002    -0.12410000
opls_145-172    C    0.27072999    0.83037997    0.69266007    -0.17950000
opls_916-173    C    0.78845008    0.33113002    0.65160016    0.15540000
opls_145-174    C    0.81571013    0.32510996    0.65255029    -0.17060000
opls_145-175    C    0.82496012    0.31825003    0.69347013    -0.13210000
opls_700-176    C    0.84821001    0.73534999    0.14644020    0.07580000
opls_145-177    C    0.32515011    0.24093000    0.17319995    -0.12940000
opls_145-178    C    0.31498008    0.23337005    0.21340013    -0.17160000
opls_145-179    C    0.82745002    0.72010004    0.22641000    0.18360000
opls_145-180    C    0.85011009    0.71433996    0.19874014    -0.17240000
opls_145-181    C    0.86043996    0.72196004    0.15890014    -0.13870000
opls_142-182    C    0.82003998    0.69964998    0.27961004    0.07530000
opls_700-183    C    0.81468999    0.69438997    0.32834995    0.05320000
opls_145-184    C    0.80853002    0.67954995    0.33640014    -0.12480000
opls_145-185    C    0.80399002    0.67441999    0.38288997    -0.12300000
opls_700-186    C    0.80601008    0.68404001    0.42192992    0.06720000
opls_145-187    C    0.81278012    0.69885003    0.41361996    -0.12870000
opls_145-188    C    0.81684003    0.70402001    0.36723018    -0.12200000
opls_700-189    C    0.80053008    0.67874999    0.47115008    0.06520000
opls_145-190    C    0.28620014    0.18774002    0.50485016    -0.12450000
opls_145-191    C    0.28002003    0.18256004    0.55077005    -0.17160000
opls_916-192    C    0.78761007    0.66824998    0.56315996    0.16340000
opls_145-193    C    0.80246010    0.65935999    0.53021026    -0.17350000
opls_145-194    C    0.80904005    0.66458999    0.48454013    -0.12410000
opls_700-195    C    0.58777005    0.48625003    0.61802014    0.06500000
opls_145-196    C    0.08377996    0.97927996    0.66229026    -0.12640000
opls_145-197    C    0.07000012    0.96571995    0.66505025    -0.17720000
opls_145-198    C    0.06006998    0.95913002    0.62325996    0.17750000
opls_145-199    C    0.56367005    0.46635996    0.57944006    -0.18490000
opls_145-200    C    0.57744008    0.47984005    0.57673011    -0.13300000
opls_142-201    C    0.54160015    0.43628999    0.65847010    0.07560000
opls_700-202    C    0.53020009    0.42158001    0.64940010    0.04980000
opls_145-203    C    0.52655015    0.41667002    0.60237000    -0.12470000
opls_145-204    C    0.51614009    0.40265996    0.59384993    -0.11870000
opls_700-205    C    0.50915998    0.39330002    0.63211020    0.06470000
opls_145-206    C    0.01274999    0.89817001    0.67916996    -0.12610000
opls_145-207    C    0.02321998    0.91222997    0.68774006    -0.12640000
opls_700-208    C    0.49732002    0.37864996    0.62299018    0.06480000
opls_145-209    C    0.50636014    0.36647000    0.64908995    -0.12870000
opls_145-210    C    0.49349012    0.35287998    0.64335023    -0.17480000
opls_916-211    C    0.47122008    0.35127996    0.61183019    0.15830000
opls_145-212    C    0.96309010    0.86326996    0.58397024    -0.17820000
opls_145-213    C    0.97610009    0.87687998    0.58949020    -0.12410000
opls_141-214    C    0.37583998    0.25597999    0.11408009    0.00720000
opls_700-215    C    0.38167008    0.26115997    0.16230009    0.07790000
opls_145-216    C    0.90360002    0.75486003    0.18774988    -0.12590000
opls_145-217    C    0.91050007    0.76061000    0.23208004    -0.17670000
opls_145-218    C    0.39535009    0.27253997    0.25134989    0.18560000
opls_145-219    C    0.37327004    0.27876000    0.22553991    -0.17480000
opls_145-220    C    0.36631007    0.27297002    0.18157994    -0.13560000
opls_142-221    C    0.38745013    0.28638997    0.32364005    0.07530000
opls_700-222    C    0.39831005    0.29392003    0.36539996    0.05390000
opls_145-223    C    0.38008009    0.30323005    0.39151009    -0.14530000
opls_145-224    C    0.38974003    0.31092995    0.43060007    -0.11560000
opls_700-225    C    0.41783998    0.30940995    0.44431994    0.06460000
opls_145-226    C    0.43626010    0.30016995    0.41795003    -0.12420000
opls_145-227    C    0.42656013    0.29246005    0.37865995    -0.12690000
opls_700-228    C    0.42739012    0.31703004    0.48717005    0.06490000
opls_145-229    C    0.95341997    0.82441004    0.48686025    -0.12470000
opls_145-230    C    0.96216999    0.83149004    0.52796018    -0.17090000
opls_916-231    C    0.44521000    0.33123005    0.56991019    0.15560000
opls_145-232    C    0.41911014    0.32390997    0.56995021    -0.17120000
opls_145-233    C    0.41031007    0.31686998    0.52903001    -0.13320000
opls_141-234    C    0.63163008    0.50000000    0.60221027    -0.00240000
opls_141-235    C    0.60380004    0.50000000    0.61414995    -0.00240000
opls_700-236    C    0.38813006    0.26444005    0.07421007    0.07650000
opls_145-237    C    0.91168006    0.75896996    0.04845012    -0.12940000
opls_145-238    C    0.92216993    0.76652002    0.00846004    -0.17150000
opls_145-239    C    0.40953013    0.27966999    0.99472016    0.18370000
opls_145-240    C    0.38631001    0.28530002    0.02131018    -0.17130000
opls_145-241    C    0.37565011    0.27768005    0.06092006    -0.13880000
opls_142-242    C    0.41743010    0.30015005    0.94195998    0.07230000
opls_700-243    C    0.42304016    0.30545997    0.89336014    0.05650000
opls_145-244    C    0.42875004    0.32035002    0.88549005    -0.12480000
opls_145-245    C    0.43313003    0.32557001    0.83907025    -0.12410000
opls_700-246    C    0.43140013    0.31595999    0.79995026    0.06840000
opls_145-247    C    0.42528008    0.30107005    0.80807012    -0.13740000
opls_145-248    C    0.42137003    0.29583005    0.85439023    -0.12910000
opls_700-249    C    0.43615004    0.32138005    0.75075012    0.06720000
opls_145-250    C    0.95066008    0.81264001    0.71657015    -0.12640000
opls_145-251    C    0.95574998    0.81789002    0.67042013    -0.18560000
opls_916-252    C    0.44685005    0.33200000    0.65833003    0.16130000
opls_145-253    C    0.43198008    0.34067002    0.69183000    -0.16140000
opls_145-254    C    0.42648003    0.33535999    0.73775026    -0.12840000
opls_700-255    C    0.64766008    0.51374997    0.59843013    0.06460000
opls_145-256    C    0.15164014    0.02076005    0.55420002    -0.12640000
opls_145-257    C    0.16541008    0.03431995    0.55154009    -0.17830000
opls_145-258    C    0.17533001    0.04087998    0.59338005    0.18710000
opls_145-259    C    0.67172008    0.53362003    0.63715027    -0.18490000
opls_145-260    C    0.65795997    0.52014005    0.63977018    -0.13870000
opls_142-261    C    0.69386001    0.56376002    0.55840003    0.07270000
opls_700-262    C    0.70528001    0.57846000    0.56775016    0.04990000
opls_145-263    C    0.70877999    0.58328997    0.61488997    -0.12670000
opls_145-264    C    0.71910007    0.59728002    0.62376021    -0.13180000
opls_700-265    C    0.72614994    0.60672999    0.58576008    0.06480000
opls_145-266    C    0.22277009    0.10193003    0.53857025    -0.13140000
opls_145-267    C    0.21238009    0.08786995    0.52962996    -0.12300000
opls_700-268    C    0.73760014    0.62143996    0.59543002    0.06390000
opls_145-269    C    0.72846001    0.63363003    0.56946997    -0.11980000
opls_145-270    C    0.74071015    0.64732998    0.57627023    -0.17680000
opls_916-271    C    0.76242008    0.64904004    0.60883008    0.15950000
opls_145-272    C    0.27065999    0.13704004    0.63646028    -0.17660000
opls_145-273    C    0.25833004    0.12330997    0.62977007    -0.12470000
opls_141-274    C    0.86038996    0.74385995    0.10656017    0.00630000
opls_700-275    C    0.85460007    0.73869998    0.05828014    0.07790000
opls_145-276    C    0.33240994    0.24485998    0.03314015    -0.12580000
opls_145-277    C    0.32560007    0.23915003    0.98871030    -0.17890000
opls_145-278    C    0.84107007    0.72738000    0.96905025    0.17980000
opls_145-279    C    0.86346015    0.72133004    0.99453006    -0.17890000
opls_145-280    C    0.87036007    0.72710001    0.03856006    -0.13520000
opls_142-281    C    0.84862996    0.71334004    0.89691017    0.07560000
opls_700-282    C    0.83745000    0.70581999    0.85536001    0.05430000
opls_145-283    C    0.85490013    0.69579003    0.83065024    -0.13170000
opls_145-284    C    0.84483013    0.68806002    0.79194010    -0.11990000
opls_700-285    C    0.81712008    0.69030995    0.77705999    0.06390000
opls_145-286    C    0.79951999    0.70031000    0.80197022    -0.12470000
opls_145-287    C    0.80960008    0.70802001    0.84099016    -0.12470000
opls_700-288    C    0.80719001    0.68267997    0.73438997    0.06570000
opls_145-289    C    0.28001010    0.17650996    0.73379002    -0.12410000
opls_145-290    C    0.27072999    0.16962003    0.69266007    -0.17950000
opls_916-291    C    0.78845008    0.66886998    0.65160016    0.15540000
opls_145-292    C    0.81571013    0.67489004    0.65255029    -0.17060000
opls_145-293    C    0.82496012    0.68174997    0.69347013    -0.13210000
opls_700-294    C    0.84821001    0.26465001    0.14644020    0.07580000
opls_145-295    C    0.32515011    0.75907000    0.17319995    -0.12940000
opls_145-296    C    0.31498008    0.76662995    0.21340013    -0.17160000
opls_145-297    C    0.82745002    0.27989996    0.22641000    0.18360000
opls_145-298    C    0.85011009    0.28566004    0.19874014    -0.17240000
opls_145-299    C    0.86043996    0.27803996    0.15890014    -0.13880000
opls_142-300    C    0.82003998    0.30035002    0.27961004    0.07530000
opls_700-301    C    0.81468999    0.30561003    0.32834995    0.05320000
opls_145-302    C    0.80853002    0.32045005    0.33640014    -0.12470000
opls_145-303    C    0.80399002    0.32558001    0.38288997    -0.12300000
opls_700-304    C    0.80601008    0.31595999    0.42192992    0.06720000
opls_145-305    C    0.81278012    0.30114997    0.41361996    -0.12870000
opls_145-306    C    0.81684003    0.29597999    0.36723018    -0.12200000
opls_700-307    C    0.80053008    0.32125001    0.47115008    0.06520000
opls_145-308    C    0.28620014    0.81225998    0.50485016    -0.12450000
opls_145-309    C    0.28002003    0.81743996    0.55077005    -0.17160000
opls_916-310    C    0.78761007    0.33175002    0.56315996    0.16340000
opls_145-311    C    0.80246010    0.34064001    0.53021026    -0.17350000
opls_145-312    C    0.80904005    0.33541001    0.48454013    -0.12420000
opls_700-313    C    0.58777005    0.51374997    0.61802014    0.06490000
opls_145-314    C    0.08377996    0.02072004    0.66229026    -0.12640000
opls_145-315    C    0.07000012    0.03428005    0.66505025    -0.17730000
opls_145-316    C    0.06006998    0.04086998    0.62325996    0.17750000
opls_145-317    C    0.56367005    0.53364004    0.57944006    -0.18490000
opls_145-318    C    0.57744008    0.52015995    0.57673011    -0.13300000
opls_142-319    C    0.54160015    0.56371001    0.65847010    0.07560000
opls_700-320    C    0.53020009    0.57841999    0.64940010    0.04980000
opls_145-321    C    0.52655015    0.58332998    0.60237000    -0.12480000
opls_145-322    C    0.51614009    0.59734004    0.59384993    -0.11870000
opls_700-323    C    0.50915998    0.60669998    0.63211020    0.06470000
opls_145-324    C    0.01274999    0.10182999    0.67916996    -0.12600000
opls_145-325    C    0.02321998    0.08777003    0.68774006    -0.12640000
opls_700-326    C    0.49732002    0.62135004    0.62299018    0.06480000
opls_145-327    C    0.50636014    0.63353000    0.64908995    -0.12870000
opls_145-328    C    0.49349012    0.64712002    0.64335023    -0.17480000
opls_916-329    C    0.47122008    0.64872004    0.61183019    0.15830000
opls_145-330    C    0.96309010    0.13673004    0.58397024    -0.17820000
opls_145-331    C    0.97610009    0.12312002    0.58949020    -0.12410000
opls_141-332    C    0.37583998    0.74402001    0.11408009    0.00720000
opls_700-333    C    0.38167008    0.73884003    0.16230009    0.07790000
opls_145-334    C    0.90360002    0.24513997    0.18774988    -0.12590000
opls_145-335    C    0.91050007    0.23939000    0.23208004    -0.17680000
opls_145-336    C    0.39535009    0.72746003    0.25134989    0.18560000
opls_145-337    C    0.37327004    0.72124000    0.22553991    -0.17480000
opls_145-338    C    0.36631007    0.72702998    0.18157994    -0.13560000
opls_142-339    C    0.38745013    0.71361003    0.32364005    0.07530000
opls_700-340    C    0.39831005    0.70607997    0.36539996    0.05390000
opls_145-341    C    0.38008009    0.69676995    0.39151009    -0.14540000
opls_145-342    C    0.38974003    0.68907005    0.43060007    -0.11560000
opls_700-343    C    0.41783998    0.69059005    0.44431994    0.06460000
opls_145-344    C    0.43626010    0.69983005    0.41795003    -0.12420000
opls_145-345    C    0.42656013    0.70753995    0.37865995    -0.12680000
opls_700-346    C    0.42739012    0.68296996    0.48717005    0.06480000
opls_145-347    C    0.95341997    0.17558996    0.48686025    -0.12470000
opls_145-348    C    0.96216999    0.16850996    0.52796018    -0.17080000
opls_916-349    C    0.44521000    0.66876995    0.56991019    0.15560000
opls_145-350    C    0.41911014    0.67609003    0.56995021    -0.17120000
opls_145-351    C    0.41031007    0.68313002    0.52903001    -0.13320000
opls_700-352    C    0.61187015    0.26444005    0.92579029    0.07650000
opls_145-353    C    0.08832015    0.75896996    0.95155024    -0.12940000
opls_145-354    C    0.07783006    0.76652002    0.99154032    -0.17160000
opls_145-355    C    0.59047009    0.27966999    0.00527984    0.18370000
opls_145-356    C    0.61368998    0.28530002    0.97869018    -0.17130000
opls_145-357    C    0.62435010    0.27768005    0.93908029    -0.13880000
opls_142-358    C    0.58256990    0.30015005    0.05804002    0.07230000
opls_700-359    C    0.57696005    0.30545997    0.10663986    0.05650000
opls_145-360    C    0.57124996    0.32035002    0.11450995    -0.12480000
opls_145-361    C    0.56686996    0.32557001    0.16093010    -0.12410000
opls_700-362    C    0.56860007    0.31595999    0.20005010    0.06840000
opls_145-363    C    0.57471992    0.30107005    0.19192988    -0.13320000
opls_145-364    C    0.57862996    0.29583005    0.14561013    -0.12920000
opls_700-365    C    0.56384996    0.32138005    0.24924988    0.06720000
opls_145-366    C    0.04933992    0.81264001    0.28343021    -0.12640000
opls_145-367    C    0.04425001    0.81789002    0.32958022    -0.18560000
opls_916-368    C    0.55314995    0.33200000    0.34166997    0.16140000
opls_145-369    C    0.56801992    0.34067002    0.30817000    -0.16130000
opls_145-370    C    0.57351997    0.33535999    0.26225010    -0.12840000
opls_700-371    C    0.35234012    0.51374997    0.40157023    0.06460000
opls_145-372    C    0.84836008    0.02076005    0.44579998    -0.12640000
opls_145-373    C    0.83459013    0.03431995    0.44845991    -0.17830000
opls_145-374    C    0.82466999    0.04087998    0.40661995    0.17750000
opls_145-375    C    0.32828012    0.53362003    0.36285009    -0.18490000
opls_145-376    C    0.34204003    0.52014005    0.36023017    -0.13870000
opls_142-377    C    0.30613999    0.56376002    0.44159997    0.07270000
opls_700-378    C    0.29471998    0.57846000    0.43225020    0.04980000
opls_145-379    C    0.29122001    0.58328997    0.38511003    -0.12670000
opls_145-380    C    0.28089993    0.59728002    0.37624014    -0.13180000
opls_700-381    C    0.27385006    0.60672999    0.41423992    0.06480000
opls_145-382    C    0.77723012    0.10193003    0.46143011    -0.13150000
opls_145-383    C    0.78762012    0.08786995    0.47037004    -0.12300000
opls_700-384    C    0.26240007    0.62143996    0.40456998    0.06390000
opls_145-385    C    0.27153999    0.63363003    0.43053003    -0.11990000
opls_145-386    C    0.25929006    0.64732998    0.42373013    -0.17680000
opls_916-387    C    0.23758013    0.64904004    0.39116992    0.15950000
opls_145-388    C    0.72934001    0.13704004    0.36354008    -0.17670000
opls_145-389    C    0.74166996    0.12330997    0.37022993    -0.12470000
opls_141-390    C    0.13961003    0.74385995    0.89344018    0.00630000
opls_700-391    C    0.14540013    0.73869998    0.94172021    0.07790000
opls_145-392    C    0.66759006    0.24485998    0.96686021    -0.12570000
opls_145-393    C    0.67439992    0.23915003    0.01129006    -0.17890000
opls_145-394    C    0.15892993    0.72738000    0.03095010    0.17980000
opls_145-395    C    0.13654006    0.72133004    0.00546994    -0.17890000
opls_145-396    C    0.12964014    0.72710001    0.96144029    -0.13520000
opls_142-397    C    0.15137003    0.71334004    0.10309019    0.07560000
opls_700-398    C    0.16255000    0.70581999    0.14463999    0.05430000
opls_145-399    C    0.14510008    0.69579003    0.16935012    -0.13180000
opls_145-400    C    0.15517008    0.68806002    0.20805990    -0.11990000
opls_700-401    C    0.18287992    0.69030995    0.22294001    0.06390000
opls_145-402    C    0.20048001    0.70031000    0.19803014    -0.12470000
opls_145-403    C    0.19039991    0.70802001    0.15901019    -0.12460000
opls_700-404    C    0.19280999    0.68267997    0.26561003    0.06570000
opls_145-405    C    0.71999011    0.17650996    0.26620998    -0.12410000
opls_145-406    C    0.72927001    0.16962003    0.30733993    -0.17950000
opls_916-407    C    0.21155013    0.66886998    0.34840020    0.15540000
opls_145-408    C    0.18429008    0.67489004    0.34745007    -0.17060000
opls_145-409    C    0.17504010    0.68174997    0.30652987    -0.13200000
opls_700-410    C    0.15178998    0.26465001    0.85356016    0.07580000
opls_145-411    C    0.67485010    0.75907000    0.82680005    -0.12940000
opls_145-412    C    0.68502012    0.76662995    0.78660022    -0.17160000
opls_145-413    C    0.17254998    0.27989996    0.77359000    0.18360000
opls_145-414    C    0.14989011    0.28566004    0.80126022    -0.17240000
opls_145-415    C    0.13956004    0.27803996    0.84110022    -0.13870000
opls_142-416    C    0.17996002    0.30035002    0.72038996    0.07530000
opls_700-417    C    0.18531001    0.30561003    0.67165005    0.05320000
opls_145-418    C    0.19146997    0.32045005    0.66360022    -0.12480000
opls_145-419    C    0.19600998    0.32558001    0.61711003    -0.12300000
opls_700-420    C    0.19399013    0.31595999    0.57807008    0.06720000
opls_145-421    C    0.18722009    0.30114997    0.58638004    -0.12870000
opls_145-422    C    0.18315997    0.29597999    0.63277018    -0.12200000
opls_700-423    C    0.19947013    0.32125001    0.52884992    0.06520000
opls_145-424    C    0.71380007    0.81225998    0.49515020    -0.12450000
opls_145-425    C    0.71997997    0.81743996    0.44922995    -0.17160000
opls_916-426    C    0.21238993    0.33175002    0.43684004    0.16340000
opls_145-427    C    0.19754010    0.34064001    0.46979010    -0.17350000
opls_145-428    C    0.19095995    0.33541001    0.51546022    -0.12420000
opls_700-429    C    0.41222994    0.51374997    0.38198022    0.06490000
opls_145-430    C    0.91622003    0.02072004    0.33771009    -0.12640000
opls_145-431    C    0.93000008    0.03428005    0.33495011    -0.17730000
opls_145-432    C    0.93993002    0.04086998    0.37674004    0.17750000
opls_145-433    C    0.43632995    0.53364004    0.42055994    -0.18490000
opls_145-434    C    0.42256013    0.52015995    0.42326989    -0.13290000
opls_142-435    C    0.45840006    0.56371001    0.34152990    0.07570000
opls_700-436    C    0.46980012    0.57841999    0.35059990    0.04980000
opls_145-437    C    0.47345006    0.58332998    0.39763000    -0.12480000
opls_145-438    C    0.48386012    0.59734004    0.40615007    -0.11870000
opls_700-439    C    0.49084001    0.60669998    0.36789016    0.06470000
opls_145-440    C    0.98725001    0.10182999    0.32083004    -0.12610000
opls_145-441    C    0.97678002    0.08777003    0.31225994    -0.12640000
opls_700-442    C    0.50267997    0.62135004    0.37701018    0.06480000
opls_145-443    C    0.49364008    0.63353000    0.35091005    -0.12230000
opls_145-444    C    0.50651008    0.64712002    0.35665013    -0.17470000
opls_916-445    C    0.52878013    0.64872004    0.38817017    0.15830000
opls_145-446    C    0.03691010    0.13673004    0.41603012    -0.17830000
opls_145-447    C    0.02390012    0.12312002    0.41051016    -0.12410000
opls_141-448    C    0.62416001    0.74402001    0.88592027    0.00720000
opls_700-449    C    0.61833013    0.73884003    0.83770027    0.07790000
opls_145-450    C    0.09639998    0.24513997    0.81225012    -0.12590000
opls_145-451    C    0.08950014    0.23939000    0.76791996    -0.17680000
opls_145-452    C    0.60465012    0.72746003    0.74865011    0.18560000
opls_145-453    C    0.62672996    0.72124000    0.77446009    -0.17480000
opls_145-454    C    0.63369015    0.72702998    0.81842006    -0.13560000
opls_142-455    C    0.61255008    0.71361003    0.67635995    0.07530000
opls_700-456    C    0.60168995    0.70607997    0.63460004    0.05390000
opls_145-457    C    0.61992011    0.69676995    0.60849027    -0.14540000
opls_145-458    C    0.61025997    0.68907005    0.56939993    -0.11560000
opls_700-459    C    0.58216002    0.69059005    0.55568006    0.06460000
opls_145-460    C    0.56374011    0.69983005    0.58204997    -0.12420000
opls_145-461    C    0.57344008    0.70753995    0.62134005    -0.12690000
opls_700-462    C    0.57261010    0.68296996    0.51282995    0.06480000
opls_145-463    C    0.04658002    0.17558996    0.51314011    -0.12470000
opls_145-464    C    0.03783000    0.16850996    0.47204017    -0.17090000
opls_916-465    C    0.55478999    0.66876995    0.43009016    0.15570000
opls_145-466    C    0.58089007    0.67609003    0.43005014    -0.17120000
opls_145-467    C    0.58969014    0.68313002    0.47096999    -0.13320000
opls_700-468    C    0.11187015    0.23555995    0.92579029    0.07650000
opls_145-469    C    0.58832015    0.74103004    0.95155024    -0.12940000
opls_145-470    C    0.57783006    0.73347998    0.99154032    -0.17160000
opls_145-471    C    0.09047009    0.22033001    0.00527984    0.18370000
opls_145-472    C    0.11368998    0.21469998    0.97869018    -0.17130000
opls_145-473    C    0.12435010    0.22231995    0.93908029    -0.13880000
opls_142-474    C    0.08256990    0.19984995    0.05804002    0.07230000
opls_700-475    C    0.07696005    0.19454003    0.10663986    0.05650000
opls_145-476    C    0.07124996    0.17964998    0.11450995    -0.12470000
opls_145-477    C    0.06686996    0.17442999    0.16093010    -0.12400000
opls_700-478    C    0.06860007    0.18404001    0.20005010    0.06840000
opls_145-479    C    0.07471992    0.19892995    0.19192988    -0.13320000
opls_145-480    C    0.07862996    0.20416995    0.14561013    -0.12920000
opls_700-481    C    0.06384996    0.17861995    0.24924988    0.06720000
opls_145-482    C    0.54933992    0.68735999    0.28343021    -0.12640000
opls_145-483    C    0.54425001    0.68210998    0.32958022    -0.18560000
opls_916-484    C    0.05314995    0.16800000    0.34166997    0.16130000
opls_145-485    C    0.06801992    0.15932998    0.30817000    -0.16140000
opls_145-486    C    0.07351997    0.16464001    0.26225010    -0.12830000
opls_700-487    C    0.85234012    0.98625003    0.40157023    0.06460000
opls_145-488    C    0.34836008    0.47923995    0.44579998    -0.12640000
opls_145-489    C    0.33459013    0.46568005    0.44845991    -0.17820000
opls_145-490    C    0.32466999    0.45912002    0.40661995    0.17760000
opls_145-491    C    0.82828012    0.96637997    0.36285009    -0.18490000
opls_145-492    C    0.84204003    0.97985995    0.36023017    -0.13870000
opls_142-493    C    0.80613999    0.93623998    0.44159997    0.07270000
opls_700-494    C    0.79471998    0.92154000    0.43225020    0.04980000
opls_145-495    C    0.79122001    0.91671003    0.38511003    -0.12660000
opls_145-496    C    0.78089993    0.90271998    0.37624014    -0.13180000
opls_700-497    C    0.77385006    0.89327001    0.41423992    0.06480000
opls_145-498    C    0.27723012    0.39806997    0.46143011    -0.13150000
opls_145-499    C    0.28762012    0.41213005    0.47037004    -0.12300000
opls_700-500    C    0.76240007    0.87856004    0.40456998    0.06390000
opls_145-501    C    0.77153999    0.86636997    0.43053003    -0.11990000
opls_145-502    C    0.75929006    0.85267002    0.42373013    -0.17680000
opls_916-503    C    0.73758013    0.85095996    0.39116992    0.15950000
opls_145-504    C    0.22934001    0.36295996    0.36354008    -0.17670000
opls_145-505    C    0.24166996    0.37669003    0.37022993    -0.12470000
opls_141-506    C    0.63961003    0.75614005    0.89344018    0.00630000
opls_700-507    C    0.64540013    0.76130002    0.94172021    0.07790000
opls_145-508    C    0.16759006    0.25514002    0.96686021    -0.12580000
opls_145-509    C    0.17439992    0.26084997    0.01129006    -0.17890000
opls_145-510    C    0.65892993    0.77262000    0.03095010    0.17980000
opls_145-511    C    0.63654006    0.77866996    0.00546994    -0.17890000
opls_145-512    C    0.62964014    0.77289999    0.96144029    -0.13520000
opls_142-513    C    0.65137003    0.78665996    0.10309019    0.07560000
opls_700-514    C    0.66255000    0.79418001    0.14463999    0.05430000
opls_145-515    C    0.64510008    0.80420997    0.16935012    -0.13180000
opls_145-516    C    0.65517008    0.81193998    0.20805990    -0.11990000
opls_700-517    C    0.68287992    0.80969005    0.22294001    0.06390000
opls_145-518    C    0.70048001    0.79969000    0.19803014    -0.12470000
opls_145-519    C    0.69039991    0.79197999    0.15901019    -0.12460000
opls_700-520    C    0.69280999    0.81732003    0.26561003    0.06570000
opls_145-521    C    0.21999011    0.32349004    0.26620998    -0.12410000
opls_145-522    C    0.22927001    0.33037997    0.30733993    -0.17950000
opls_916-523    C    0.71155013    0.83113002    0.34840020    0.15550000
opls_145-524    C    0.68429008    0.82510996    0.34745007    -0.17050000
opls_145-525    C    0.67504010    0.81825003    0.30652987    -0.13210000
opls_700-526    C    0.65178998    0.23534999    0.85356016    0.07580000
opls_145-527    C    0.17485010    0.74093000    0.82680005    -0.12940000
opls_145-528    C    0.18502012    0.73337005    0.78660022    -0.17160000
opls_145-529    C    0.67254998    0.22010004    0.77359000    0.18360000
opls_145-530    C    0.64989011    0.21433996    0.80126022    -0.17240000
opls_145-531    C    0.63956004    0.22196004    0.84110022    -0.13880000
opls_142-532    C    0.67996002    0.19964998    0.72038996    0.07530000
opls_700-533    C    0.68531001    0.19438997    0.67165005    0.05320000
opls_145-534    C    0.69146997    0.17954995    0.66360022    -0.12480000
opls_145-535    C    0.69600998    0.17441999    0.61711003    -0.12300000
opls_700-536    C    0.69399013    0.18404001    0.57807008    0.06720000
opls_145-537    C    0.68722009    0.19885003    0.58638004    -0.12870000
opls_145-538    C    0.68315997    0.20402001    0.63277018    -0.12200000
opls_700-539    C    0.69947013    0.17874999    0.52884992    0.06520000
opls_145-540    C    0.21380007    0.68774002    0.49515020    -0.12450000
opls_145-541    C    0.21997997    0.68256004    0.44922995    -0.17160000
opls_916-542    C    0.71238993    0.16824998    0.43684004    0.16340000
opls_145-543    C    0.69754010    0.15935999    0.46979010    -0.17350000
opls_145-544    C    0.69095995    0.16458999    0.51546022    -0.12420000
opls_700-545    C    0.91222994    0.98625003    0.38198022    0.06490000
opls_145-546    C    0.41622003    0.47927996    0.33771009    -0.12640000
opls_145-547    C    0.43000008    0.46571995    0.33495011    -0.17730000
opls_145-548    C    0.43993002    0.45913002    0.37674004    0.17750000
opls_145-549    C    0.93632995    0.96635996    0.42055994    -0.18490000
opls_145-550    C    0.92256013    0.97984005    0.42326989    -0.13300000
opls_142-551    C    0.95840006    0.93628999    0.34152990    0.07560000
opls_700-552    C    0.96980012    0.92158001    0.35059990    0.04980000
opls_145-553    C    0.97345006    0.91667002    0.39763000    -0.12480000
opls_145-554    C    0.98386012    0.90265996    0.40615007    -0.11870000
opls_700-555    C    0.99084001    0.89330002    0.36789016    0.06470000
opls_145-556    C    0.48725001    0.39817001    0.32083004    -0.12610000
opls_145-557    C    0.47678002    0.41222997    0.31225994    -0.12640000
opls_700-558    C    0.00267997    0.87864996    0.37701018    0.06480000
opls_145-559    C    0.99364008    0.86647000    0.35091005    -0.12230000
opls_145-560    C    0.00651008    0.85287998    0.35665013    -0.17480000
opls_916-561    C    0.02878013    0.85127996    0.38817017    0.15830000
opls_145-562    C    0.53691010    0.36326996    0.41603012    -0.17830000
opls_145-563    C    0.52390012    0.37687998    0.41051016    -0.12410000
opls_141-564    C    0.12416001    0.75597999    0.88592027    0.00720000
opls_700-565    C    0.11833013    0.76115997    0.83770027    0.07790000
opls_145-566    C    0.59639998    0.25486003    0.81225012    -0.12590000
opls_145-567    C    0.58950014    0.26061000    0.76791996    -0.17670000
opls_145-568    C    0.10465012    0.77253997    0.74865011    0.18560000
opls_145-569    C    0.12672996    0.77876000    0.77446009    -0.17480000
opls_145-570    C    0.13369015    0.77297002    0.81842006    -0.13560000
opls_142-571    C    0.11255008    0.78638997    0.67635995    0.07530000
opls_700-572    C    0.10168995    0.79392003    0.63460004    0.05390000
opls_145-573    C    0.11992011    0.80323005    0.60849027    -0.14540000
opls_145-574    C    0.11025997    0.81092995    0.56939993    -0.11560000
opls_700-575    C    0.08216002    0.80940995    0.55568006    0.06460000
opls_145-576    C    0.06374011    0.80016995    0.58204997    -0.12420000
opls_145-577    C    0.07344008    0.79246005    0.62134005    -0.12690000
opls_700-578    C    0.07261010    0.81703004    0.51282995    0.06480000
opls_145-579    C    0.54658002    0.32441004    0.51314011    -0.12470000
opls_145-580    C    0.53783000    0.33149004    0.47204017    -0.17090000
opls_916-581    C    0.05478999    0.83123005    0.43009016    0.15560000
opls_145-582    C    0.08089007    0.82390997    0.43005014    -0.17120000
opls_145-583    C    0.08969014    0.81686998    0.47096999    -0.13320000
opls_141-584    C    0.86837012    0.00000000    0.39779008    -0.00240000
opls_141-585    C    0.89619996    0.00000000    0.38585005    -0.00240000
opls_700-586    C    0.88813006    0.23555995    0.07421007    0.07650000
opls_145-587    C    0.41168006    0.74103004    0.04845012    -0.12940000
opls_145-588    C    0.42216993    0.73347998    0.00846004    -0.17160000
opls_145-589    C    0.90953013    0.22033001    0.99472016    0.18370000
opls_145-590    C    0.88631001    0.21469998    0.02131018    -0.17130000
opls_145-591    C    0.87565011    0.22231995    0.06092006    -0.13870000
opls_142-592    C    0.91743010    0.19984995    0.94195998    0.07240000
opls_700-593    C    0.92304016    0.19454003    0.89336014    0.05650000
opls_145-594    C    0.92875004    0.17964998    0.88549005    -0.12480000
opls_145-595    C    0.93313003    0.17442999    0.83907025    -0.12410000
opls_700-596    C    0.93140013    0.18404001    0.79995026    0.06840000
opls_145-597    C    0.92528008    0.19892995    0.80807012    -0.13740000
opls_145-598    C    0.92137003    0.20416995    0.85439023    -0.12920000
opls_700-599    C    0.93615004    0.17861995    0.75075012    0.06720000
opls_145-600    C    0.45066008    0.68735999    0.71657015    -0.12630000
opls_145-601    C    0.45574998    0.68210998    0.67042013    -0.18560000
opls_916-602    C    0.94685005    0.16800000    0.65833003    0.16130000
opls_145-603    C    0.93198008    0.15932998    0.69183000    -0.16140000
opls_145-604    C    0.92648003    0.16464001    0.73775026    -0.12840000
opls_700-605    C    0.14766008    0.98625003    0.59843013    0.06470000
opls_145-606    C    0.65164014    0.47923995    0.55420002    -0.12640000
opls_145-607    C    0.66541008    0.46568005    0.55154009    -0.17820000
opls_145-608    C    0.67533001    0.45912002    0.59338005    0.18710000
opls_145-609    C    0.17172008    0.96637997    0.63715027    -0.18490000
opls_145-610    C    0.15795997    0.97985995    0.63977018    -0.13870000
opls_142-611    C    0.19386001    0.93623998    0.55840003    0.07270000
opls_700-612    C    0.20528001    0.92154000    0.56775016    0.04980000
opls_145-613    C    0.20877999    0.91671003    0.61488997    -0.12670000
opls_145-614    C    0.21910007    0.90271998    0.62376021    -0.13180000
opls_700-615    C    0.22614994    0.89327001    0.58576008    0.06480000
opls_145-616    C    0.72277009    0.39806997    0.53857025    -0.13150000
opls_145-617    C    0.71238009    0.41213005    0.52962996    -0.12300000
opls_700-618    C    0.23760014    0.87856004    0.59543002    0.06390000
opls_145-619    C    0.22846001    0.86636997    0.56946997    -0.11990000
opls_145-620    C    0.24071015    0.85267002    0.57627023    -0.17680000
opls_916-621    C    0.26242008    0.85095996    0.60883008    0.15950000
opls_145-622    C    0.77065999    0.36295996    0.63646028    -0.17670000
opls_145-623    C    0.75833004    0.37669003    0.62977007    -0.12470000
opls_141-624    C    0.36038996    0.75614005    0.10656017    0.00630000
opls_700-625    C    0.35460007    0.76130002    0.05828014    0.07790000
opls_145-626    C    0.83240994    0.25514002    0.03314015    -0.12580000
opls_145-627    C    0.82560007    0.26084997    0.98871030    -0.17890000
opls_145-628    C    0.34107007    0.77262000    0.96905025    0.17980000
opls_145-629    C    0.36346015    0.77866996    0.99453006    -0.17890000
opls_145-630    C    0.37036007    0.77289999    0.03856006    -0.13510000
opls_142-631    C    0.34862996    0.78665996    0.89691017    0.07560000
opls_700-632    C    0.33745000    0.79418001    0.85536001    0.05430000
opls_145-633    C    0.35490013    0.80420997    0.83065024    -0.13180000
opls_145-634    C    0.34483013    0.81193998    0.79194010    -0.11990000
opls_700-635    C    0.31712008    0.80969005    0.77705999    0.06390000
opls_145-636    C    0.29951999    0.79969000    0.80197022    -0.12470000
opls_145-637    C    0.30960008    0.79197999    0.84099016    -0.12470000
opls_700-638    C    0.30719001    0.81732003    0.73438997    0.06570000
opls_145-639    C    0.78001010    0.32349004    0.73379002    -0.12410000
opls_145-640    C    0.77072999    0.33037997    0.69266007    -0.17950000
opls_916-641    C    0.28845008    0.83113002    0.65160016    0.15540000
opls_145-642    C    0.31571013    0.82510996    0.65255029    -0.17060000
opls_145-643    C    0.32496012    0.81825003    0.69347013    -0.13210000
opls_700-644    C    0.34821001    0.23534999    0.14644020    0.07580000
opls_145-645    C    0.82515011    0.74093000    0.17319995    -0.12940000
opls_145-646    C    0.81498008    0.73337005    0.21340013    -0.17160000
opls_145-647    C    0.32745002    0.22010004    0.22641000    0.18360000
opls_145-648    C    0.35011009    0.21433996    0.19874014    -0.17240000
opls_145-649    C    0.36043996    0.22196004    0.15890014    -0.13880000
opls_142-650    C    0.32003998    0.19964998    0.27961004    0.07530000
opls_700-651    C    0.31468999    0.19438997    0.32834995    0.05320000
opls_145-652    C    0.30853002    0.17954995    0.33640014    -0.12470000
opls_145-653    C    0.30399002    0.17441999    0.38288997    -0.12300000
opls_700-654    C    0.30601008    0.18404001    0.42192992    0.06720000
opls_145-655    C    0.31278012    0.19885003    0.41361996    -0.12870000
opls_145-656    C    0.31684003    0.20402001    0.36723018    -0.12200000
opls_700-657    C    0.30053008    0.17874999    0.47115008    0.06520000
opls_145-658    C    0.78620014    0.68774002    0.50485016    -0.12450000
opls_145-659    C    0.78002003    0.68256004    0.55077005    -0.17160000
opls_916-660    C    0.28761007    0.16824998    0.56315996    0.16340000
opls_145-661    C    0.30246010    0.15935999    0.53021026    -0.17350000
opls_145-662    C    0.30904005    0.16458999    0.48454013    -0.12420000
opls_700-663    C    0.08777005    0.98625003    0.61802014    0.06490000
opls_145-664    C    0.58377996    0.47927996    0.66229026    -0.12640000
opls_145-665    C    0.57000012    0.46571995    0.66505025    -0.17730000
opls_145-666    C    0.56006998    0.45913002    0.62325996    0.17750000
opls_145-667    C    0.06367005    0.96635996    0.57944006    -0.18490000
opls_145-668    C    0.07744008    0.97984005    0.57673011    -0.13290000
opls_142-669    C    0.04160015    0.93628999    0.65847010    0.07560000
opls_700-670    C    0.03020009    0.92158001    0.64940010    0.04980000
opls_145-671    C    0.02655015    0.91667002    0.60237000    -0.12480000
opls_145-672    C    0.01614009    0.90265996    0.59384993    -0.11870000
opls_700-673    C    0.00915998    0.89330002    0.63211020    0.06470000
opls_145-674    C    0.51274999    0.39817001    0.67916996    -0.12610000
opls_145-675    C    0.52321998    0.41222997    0.68774006    -0.12640000
opls_700-676    C    0.99732002    0.87864996    0.62299018    0.06480000
opls_145-677    C    0.00636014    0.86647000    0.64908995    -0.12870000
opls_145-678    C    0.99349012    0.85287998    0.64335023    -0.17480000
opls_916-679    C    0.97122008    0.85127996    0.61183019    0.15830000
opls_145-680    C    0.46309010    0.36326996    0.58397024    -0.17830000
opls_145-681    C    0.47610009    0.37687998    0.58949020    -0.12390000
opls_141-682    C    0.87583998    0.75597999    0.11408009    0.00720000
opls_700-683    C    0.88167008    0.76115997    0.16230009    0.07790000
opls_145-684    C    0.40360002    0.25486003    0.18774988    -0.12590000
opls_145-685    C    0.41050007    0.26061000    0.23208004    -0.17680000
opls_145-686    C    0.89535009    0.77253997    0.25134989    0.18560000
opls_145-687    C    0.87327004    0.77876000    0.22553991    -0.17480000
opls_145-688    C    0.86631007    0.77297002    0.18157994    -0.13560000
opls_142-689    C    0.88745013    0.78638997    0.32364005    0.07530000
opls_700-690    C    0.89831005    0.79392003    0.36539996    0.05390000
opls_145-691    C    0.88008009    0.80323005    0.39151009    -0.14540000
opls_145-692    C    0.88974003    0.81092995    0.43060007    -0.11560000
opls_700-693    C    0.91783998    0.80940995    0.44431994    0.06460000
opls_145-694    C    0.93626010    0.80016995    0.41795003    -0.12420000
opls_145-695    C    0.92656013    0.79246005    0.37865995    -0.12690000
opls_700-696    C    0.92739012    0.81703004    0.48717005    0.06480000
opls_145-697    C    0.45341997    0.32441004    0.48686025    -0.12470000
opls_145-698    C    0.46216999    0.33149004    0.52796018    -0.17070000
opls_916-699    C    0.94521000    0.83123005    0.56991019    0.15560000
opls_145-700    C    0.91911014    0.82390997    0.56995021    -0.17120000
opls_145-701    C    0.91031007    0.81686998    0.52903001    -0.13320000
opls_141-702    C    0.13163008    0.00000000    0.60221027    -0.00240000
opls_141-703    C    0.10380004    0.00000000    0.61414995    -0.00240000
opls_700-704    C    0.88813006    0.76444005    0.07421007    0.07650000
opls_145-705    C    0.41168006    0.25896996    0.04845012    -0.12940000
opls_145-706    C    0.42216993    0.26652002    0.00846004    -0.17160000
opls_145-707    C    0.90953013    0.77966999    0.99472016    0.18380000
opls_145-708    C    0.88631001    0.78530002    0.02131018    -0.17130000
opls_145-709    C    0.87565011    0.77768005    0.06092006    -0.13880000
opls_142-710    C    0.91743010    0.80015005    0.94195998    0.07230000
opls_700-711    C    0.92304016    0.80545997    0.89336014    0.05660000
opls_145-712    C    0.92875004    0.82035002    0.88549005    -0.12480000
opls_145-713    C    0.93313003    0.82557001    0.83907025    -0.12410000
opls_700-714    C    0.93140013    0.81595999    0.79995026    0.06840000
opls_145-715    C    0.92528008    0.80107005    0.80807012    -0.13740000
opls_145-716    C    0.92137003    0.79583005    0.85439023    -0.12920000
opls_700-717    C    0.93615004    0.82138005    0.75075012    0.06720000
opls_145-718    C    0.45066008    0.31264001    0.71657015    -0.12640000
opls_145-719    C    0.45574998    0.31789002    0.67042013    -0.18550000
opls_916-720    C    0.94685005    0.83200000    0.65833003    0.16140000
opls_145-721    C    0.93198008    0.84067002    0.69183000    -0.16130000
opls_145-722    C    0.92648003    0.83535999    0.73775026    -0.12830000
opls_700-723    C    0.14766008    0.01374997    0.59843013    0.06460000
opls_145-724    C    0.65164014    0.52076005    0.55420002    -0.12640000
opls_145-725    C    0.66541008    0.53431995    0.55154009    -0.17830000
opls_145-726    C    0.67533001    0.54087998    0.59338005    0.18710000
opls_145-727    C    0.17172008    0.03362003    0.63715027    -0.18490000
opls_145-728    C    0.15795997    0.02014005    0.63977018    -0.13870000
opls_142-729    C    0.19386001    0.06376002    0.55840003    0.07270000
opls_700-730    C    0.20528001    0.07846000    0.56775016    0.04980000
opls_145-731    C    0.20877999    0.08328997    0.61488997    -0.12670000
opls_145-732    C    0.21910007    0.09728002    0.62376021    -0.13180000
opls_700-733    C    0.22614994    0.10672999    0.58576008    0.06480000
opls_145-734    C    0.72277009    0.60193003    0.53857025    -0.13150000
opls_145-735    C    0.71238009    0.58786995    0.52962996    -0.12300000
opls_700-736    C    0.23760014    0.12143996    0.59543002    0.06390000
opls_145-737    C    0.22846001    0.13363003    0.56946997    -0.11980000
opls_145-738    C    0.24071015    0.14732998    0.57627023    -0.17680000
opls_916-739    C    0.26242008    0.14904004    0.60883008    0.15950000
opls_145-740    C    0.77065999    0.63704004    0.63646028    -0.17670000
opls_145-741    C    0.75833004    0.62330997    0.62977007    -0.12470000
opls_141-742    C    0.36038996    0.24385995    0.10656017    0.00630000
opls_700-743    C    0.35460007    0.23869998    0.05828014    0.07790000
opls_145-744    C    0.83240994    0.74485998    0.03314015    -0.12580000
opls_145-745    C    0.82560007    0.73915003    0.98871030    -0.17890000
opls_145-746    C    0.34107007    0.22738000    0.96905025    0.17980000
opls_145-747    C    0.36346015    0.22133004    0.99453006    -0.17880000
opls_145-748    C    0.37036007    0.22710001    0.03856006    -0.13520000
opls_142-749    C    0.34862996    0.21334004    0.89691017    0.07560000
opls_700-750    C    0.33745000    0.20581999    0.85536001    0.05430000
opls_145-751    C    0.35490013    0.19579003    0.83065024    -0.13180000
opls_145-752    C    0.34483013    0.18806002    0.79194010    -0.11980000
opls_700-753    C    0.31712008    0.19030995    0.77705999    0.06390000
opls_145-754    C    0.29951999    0.20031000    0.80197022    -0.12470000
opls_145-755    C    0.30960008    0.20802001    0.84099016    -0.12470000
opls_700-756    C    0.30719001    0.18267997    0.73438997    0.06570000
opls_145-757    C    0.78001010    0.67650996    0.73379002    -0.12410000
opls_145-758    C    0.77072999    0.66962003    0.69266007    -0.17950000
opls_916-759    C    0.28845008    0.16886998    0.65160016    0.15540000
opls_145-760    C    0.31571013    0.17489004    0.65255029    -0.17050000
opls_145-761    C    0.32496012    0.18174997    0.69347013    -0.13210000
opls_700-762    C    0.34821001    0.76465001    0.14644020    0.07580000
opls_145-763    C    0.82515011    0.25907000    0.17319995    -0.12940000
opls_145-764    C    0.81498008    0.26662995    0.21340013    -0.17160000
opls_145-765    C    0.32745002    0.77989996    0.22641000    0.18360000
opls_145-766    C    0.35011009    0.78566004    0.19874014    -0.17240000
opls_145-767    C    0.36043996    0.77803996    0.15890014    -0.13870000
opls_142-768    C    0.32003998    0.80035002    0.27961004    0.07530000
opls_700-769    C    0.31468999    0.80561003    0.32834995    0.05320000
opls_145-770    C    0.30853002    0.82045005    0.33640014    -0.12480000
opls_145-771    C    0.30399002    0.82558001    0.38288997    -0.12300000
opls_700-772    C    0.30601008    0.81595999    0.42192992    0.06730000
opls_145-773    C    0.31278012    0.80114997    0.41361996    -0.12870000
opls_145-774    C    0.31684003    0.79597999    0.36723018    -0.12200000
opls_700-775    C    0.30053008    0.82125001    0.47115008    0.06520000
opls_145-776    C    0.78620014    0.31225998    0.50485016    -0.12450000
opls_145-777    C    0.78002003    0.31743996    0.55077005    -0.17160000
opls_916-778    C    0.28761007    0.83175002    0.56315996    0.16340000
opls_145-779    C    0.30246010    0.84064001    0.53021026    -0.17350000
opls_145-780    C    0.30904005    0.83541001    0.48454013    -0.12420000
opls_700-781    C    0.08777005    0.01374997    0.61802014    0.06490000
opls_145-782    C    0.58377996    0.52072004    0.66229026    -0.12640000
opls_145-783    C    0.57000012    0.53428005    0.66505025    -0.17730000
opls_145-784    C    0.56006998    0.54086998    0.62325996    0.17750000
opls_145-785    C    0.06367005    0.03364004    0.57944006    -0.18490000
opls_145-786    C    0.07744008    0.02015995    0.57673011    -0.13300000
opls_142-787    C    0.04160015    0.06371001    0.65847010    0.07560000
opls_700-788    C    0.03020009    0.07841999    0.64940010    0.04980000
opls_145-789    C    0.02655015    0.08332998    0.60237000    -0.12480000
opls_145-790    C    0.01614009    0.09734004    0.59384993    -0.11870000
opls_700-791    C    0.00915998    0.10669998    0.63211020    0.06470000
opls_145-792    C    0.51274999    0.60182999    0.67916996    -0.12610000
opls_145-793    C    0.52321998    0.58777003    0.68774006    -0.12640000
opls_700-794    C    0.99732002    0.12135004    0.62299018    0.06480000
opls_145-795    C    0.00636014    0.13353000    0.64908995    -0.12870000
opls_145-796    C    0.99349012    0.14712002    0.64335023    -0.17480000
opls_916-797    C    0.97122008    0.14872004    0.61183019    0.15830000
opls_145-798    C    0.46309010    0.63673004    0.58397024    -0.17830000
opls_145-799    C    0.47610009    0.62312002    0.58949020    -0.12410000
opls_141-800    C    0.87583998    0.24402001    0.11408009    0.00720000
opls_700-801    C    0.88167008    0.23884003    0.16230009    0.07790000
opls_145-802    C    0.40360002    0.74513997    0.18774988    -0.12590000
opls_145-803    C    0.41050007    0.73939000    0.23208004    -0.17680000
opls_145-804    C    0.89535009    0.22746003    0.25134989    0.18560000
opls_145-805    C    0.87327004    0.22124000    0.22553991    -0.17480000
opls_145-806    C    0.86631007    0.22702998    0.18157994    -0.13560000
opls_142-807    C    0.88745013    0.21361003    0.32364005    0.07530000
opls_700-808    C    0.89831005    0.20607997    0.36539996    0.05390000
opls_145-809    C    0.88008009    0.19676995    0.39151009    -0.14540000
opls_145-810    C    0.88974003    0.18907005    0.43060007    -0.11560000
opls_700-811    C    0.91783998    0.19059005    0.44431994    0.06460000
opls_145-812    C    0.93626010    0.19983005    0.41795003    -0.12420000
opls_145-813    C    0.92656013    0.20753995    0.37865995    -0.12690000
opls_700-814    C    0.92739012    0.18296996    0.48717005    0.06480000
opls_145-815    C    0.45341997    0.67558996    0.48686025    -0.12470000
opls_145-816    C    0.46216999    0.66850996    0.52796018    -0.17090000
opls_916-817    C    0.94521000    0.16876995    0.56991019    0.15560000
opls_145-818    C    0.91911014    0.17609003    0.56995021    -0.17120000
opls_145-819    C    0.91031007    0.18313002    0.52903001    -0.13320000
opls_700-820    C    0.11187015    0.76444005    0.92579029    0.07650000
opls_145-821    C    0.58832015    0.25896996    0.95155024    -0.12940000
opls_145-822    C    0.57783006    0.26652002    0.99154032    -0.17160000
opls_145-823    C    0.09047009    0.77966999    0.00527984    0.18370000
opls_145-824    C    0.11368998    0.78530002    0.97869018    -0.17120000
opls_145-825    C    0.12435010    0.77768005    0.93908029    -0.13880000
opls_142-826    C    0.08256990    0.80015005    0.05804002    0.07230000
opls_700-827    C    0.07696005    0.80545997    0.10663986    0.05650000
opls_145-828    C    0.07124996    0.82035002    0.11450995    -0.12480000
opls_145-829    C    0.06686996    0.82557001    0.16093010    -0.12410000
opls_700-830    C    0.06860007    0.81595999    0.20005010    0.06840000
opls_145-831    C    0.07471992    0.80107005    0.19192988    -0.13320000
opls_145-832    C    0.07862996    0.79583005    0.14561013    -0.12920000
opls_700-833    C    0.06384996    0.82138005    0.24924988    0.06720000
opls_145-834    C    0.54933992    0.31264001    0.28343021    -0.12640000
opls_145-835    C    0.54425001    0.31789002    0.32958022    -0.18560000
opls_916-836    C    0.05314995    0.83200000    0.34166997    0.16130000
opls_145-837    C    0.06801992    0.84067002    0.30817000    -0.16140000
opls_145-838    C    0.07351997    0.83535999    0.26225010    -0.12840000
opls_700-839    C    0.85234012    0.01374997    0.40157023    0.06460000
opls_145-840    C    0.34836008    0.52076005    0.44579998    -0.12640000
opls_145-841    C    0.33459013    0.53431995    0.44845991    -0.17830000
opls_145-842    C    0.32466999    0.54087998    0.40661995    0.17750000
opls_145-843    C    0.82828012    0.03362003    0.36285009    -0.18490000
opls_145-844    C    0.84204003    0.02014005    0.36023017    -0.13870000
opls_142-845    C    0.80613999    0.06376002    0.44159997    0.07270000
opls_700-846    C    0.79471998    0.07846000    0.43225020    0.04980000
opls_145-847    C    0.79122001    0.08328997    0.38511003    -0.12670000
opls_145-848    C    0.78089993    0.09728002    0.37624014    -0.13180000
opls_700-849    C    0.77385006    0.10672999    0.41423992    0.06480000
opls_145-850    C    0.27723012    0.60193003    0.46143011    -0.13150000
opls_145-851    C    0.28762012    0.58786995    0.47037004    -0.12300000
opls_700-852    C    0.76240007    0.12143996    0.40456998    0.06390000
opls_145-853    C    0.77153999    0.13363003    0.43053003    -0.11990000
opls_145-854    C    0.75929006    0.14732998    0.42373013    -0.17680000
opls_916-855    C    0.73758013    0.14904004    0.39116992    0.15950000
opls_145-856    C    0.22934001    0.63704004    0.36354008    -0.17670000
opls_145-857    C    0.24166996    0.62330997    0.37022993    -0.12460000
opls_141-858    C    0.63961003    0.24385995    0.89344018    0.00630000
opls_700-859    C    0.64540013    0.23869998    0.94172021    0.07800000
opls_145-860    C    0.16759006    0.74485998    0.96686021    -0.12580000
opls_145-861    C    0.17439992    0.73915003    0.01129006    -0.17880000
opls_145-862    C    0.65892993    0.22738000    0.03095010    0.17980000
opls_145-863    C    0.63654006    0.22133004    0.00546994    -0.17890000
opls_145-864    C    0.62964014    0.22710001    0.96144029    -0.13520000
opls_142-865    C    0.65137003    0.21334004    0.10309019    0.07560000
opls_700-866    C    0.66255000    0.20581999    0.14463999    0.05430000
opls_145-867    C    0.64510008    0.19579003    0.16935012    -0.13180000
opls_145-868    C    0.65517008    0.18806002    0.20805990    -0.11990000
opls_700-869    C    0.68287992    0.19030995    0.22294001    0.06390000
opls_145-870    C    0.70048001    0.20031000    0.19803014    -0.12470000
opls_145-871    C    0.69039991    0.20802001    0.15901019    -0.12460000
opls_700-872    C    0.69280999    0.18267997    0.26561003    0.06570000
opls_145-873    C    0.21999011    0.67650996    0.26620998    -0.12410000
opls_145-874    C    0.22927001    0.66962003    0.30733993    -0.17950000
opls_916-875    C    0.71155013    0.16886998    0.34840020    0.15540000
opls_145-876    C    0.68429008    0.17489004    0.34745007    -0.17060000
opls_145-877    C    0.67504010    0.18174997    0.30652987    -0.13210000
opls_700-878    C    0.65178998    0.76465001    0.85356016    0.07580000
opls_145-879    C    0.17485010    0.25907000    0.82680005    -0.12940000
opls_145-880    C    0.18502012    0.26662995    0.78660022    -0.17160000
opls_145-881    C    0.67254998    0.77989996    0.77359000    0.18360000
opls_145-882    C    0.64989011    0.78566004    0.80126022    -0.17240000
opls_145-883    C    0.63956004    0.77803996    0.84110022    -0.13880000
opls_142-884    C    0.67996002    0.80035002    0.72038996    0.07530000
opls_700-885    C    0.68531001    0.80561003    0.67165005    0.05320000
opls_145-886    C    0.69146997    0.82045005    0.66360022    -0.12480000
opls_145-887    C    0.69600998    0.82558001    0.61711003    -0.12300000
opls_700-888    C    0.69399013    0.81595999    0.57807008    0.06720000
opls_145-889    C    0.68722009    0.80114997    0.58638004    -0.12870000
opls_145-890    C    0.68315997    0.79597999    0.63277018    -0.12200000
opls_700-891    C    0.69947013    0.82125001    0.52884992    0.06520000
opls_145-892    C    0.21380007    0.31225998    0.49515020    -0.12450000
opls_145-893    C    0.21997997    0.31743996    0.44922995    -0.17160000
opls_916-894    C    0.71238993    0.83175002    0.43684004    0.16340000
opls_145-895    C    0.69754010    0.84064001    0.46979010    -0.17350000
opls_145-896    C    0.69095995    0.83541001    0.51546022    -0.12410000
opls_700-897    C    0.91222994    0.01374997    0.38198022    0.06490000
opls_145-898    C    0.41622003    0.52072004    0.33771009    -0.12640000
opls_145-899    C    0.43000008    0.53428005    0.33495011    -0.17730000
opls_145-900    C    0.43993002    0.54086998    0.37674004    0.17750000
opls_145-901    C    0.93632995    0.03364004    0.42055994    -0.18480000
opls_145-902    C    0.92256013    0.02015995    0.42326989    -0.13300000
opls_142-903    C    0.95840006    0.06371001    0.34152990    0.07560000
opls_700-904    C    0.96980012    0.07841999    0.35059990    0.04980000
opls_145-905    C    0.97345006    0.08332998    0.39763000    -0.12480000
opls_145-906    C    0.98386012    0.09734004    0.40615007    -0.11870000
opls_700-907    C    0.99084001    0.10669998    0.36789016    0.06470000
opls_145-908    C    0.48725001    0.60182999    0.32083004    -0.12610000
opls_145-909    C    0.47678002    0.58777003    0.31225994    -0.12640000
opls_700-910    C    0.00267997    0.12135004    0.37701018    0.06480000
opls_145-911    C    0.99364008    0.13353000    0.35091005    -0.12230000
opls_145-912    C    0.00651008    0.14712002    0.35665013    -0.17480000
opls_916-913    C    0.02878013    0.14872004    0.38817017    0.15830000
opls_145-914    C    0.53691010    0.63673004    0.41603012    -0.17830000
opls_145-915    C    0.52390012    0.62312002    0.41051016    -0.12410000
opls_141-916    C    0.12416001    0.24402001    0.88592027    0.00720000
opls_700-917    C    0.11833013    0.23884003    0.83770027    0.07790000
opls_145-918    C    0.59639998    0.74513997    0.81225012    -0.12590000
opls_145-919    C    0.58950014    0.73939000    0.76791996    -0.17680000
opls_145-920    C    0.10465012    0.22746003    0.74865011    0.18560000
opls_145-921    C    0.12672996    0.22124000    0.77446009    -0.17480000
opls_145-922    C    0.13369015    0.22702998    0.81842006    -0.13560000
opls_142-923    C    0.11255008    0.21361003    0.67635995    0.07530000
opls_700-924    C    0.10168995    0.20607997    0.63460004    0.05390000
opls_145-925    C    0.11992011    0.19676995    0.60849027    -0.14540000
opls_145-926    C    0.11025997    0.18907005    0.56939993    -0.11560000
opls_700-927    C    0.08216002    0.19059005    0.55568006    0.06460000
opls_145-928    C    0.06374011    0.19983005    0.58204997    -0.12420000
opls_145-929    C    0.07344008    0.20753995    0.62134005    -0.12690000
opls_700-930    C    0.07261010    0.18296996    0.51282995    0.06480000
opls_145-931    C    0.54658002    0.67558996    0.51314011    -0.12470000
opls_145-932    C    0.53783000    0.66850996    0.47204017    -0.17080000
opls_916-933    C    0.05478999    0.16876995    0.43009016    0.15560000
opls_145-934    C    0.08089007    0.17609003    0.43005014    -0.17110000
opls_145-935    C    0.08969014    0.18313002    0.47096999    -0.13310000
opls_750-936    N    0.58160008    0.71379998    0.04941990    -0.31380000
opls_750-937    N    0.81221003    0.94481996    0.40579024    -0.31580000
opls_750-938    N    0.16769010    0.27887004    0.07495009    -0.37120000
opls_239-939    N    0.54525004    0.66195004    0.38734010    -0.15160000
opls_750-940    N    0.18092997    0.71359002    0.72914014    -0.31390000
opls_750-941    N    0.95237998    0.94482997    0.37746005    -0.31560000
opls_750-942    N    0.59596001    0.27878000    0.70461011    -0.37130000
opls_239-943    N    0.22134999    0.66234996    0.39147007    -0.15140000
opls_750-944    N    0.41840013    0.71379998    0.95058010    -0.31400000
opls_750-945    N    0.18778997    0.94481996    0.59421011    -0.31580000
opls_750-946    N    0.83231011    0.27887004    0.92505027    -0.37130000
opls_239-947    N    0.45474995    0.66195004    0.61266026    -0.15170000
opls_750-948    N    0.81907002    0.71359002    0.27086021    -0.31390000
opls_750-949    N    0.04762002    0.94482997    0.62253995    -0.31580000
opls_750-950    N    0.40403999    0.27878000    0.29538989    -0.37120000
opls_239-951    N    0.77865001    0.66234996    0.60852993    -0.15140000
opls_750-952    N    0.41840013    0.28620002    0.95058010    -0.31400000
opls_750-953    N    0.18778997    0.05518004    0.59421011    -0.31580000
opls_750-954    N    0.83231011    0.72112996    0.92505027    -0.37130000
opls_239-955    N    0.45474995    0.33804996    0.61266026    -0.15170000
opls_750-956    N    0.81907002    0.28640998    0.27086021    -0.31400000
opls_750-957    N    0.04762002    0.05517003    0.62253995    -0.31580000
opls_750-958    N    0.40403999    0.72122000    0.29538989    -0.37130000
opls_239-959    N    0.77865001    0.33765004    0.60852993    -0.15130000
opls_750-960    N    0.58160008    0.28620002    0.04941990    -0.31410000
opls_750-961    N    0.81221003    0.05518004    0.40579024    -0.31570000
opls_750-962    N    0.16769010    0.72112996    0.07495009    -0.37120000
opls_239-963    N    0.54525004    0.33804996    0.38734010    -0.15170000
opls_750-964    N    0.18092997    0.28640998    0.72914014    -0.31400000
opls_750-965    N    0.95237998    0.05517003    0.37746005    -0.31580000
opls_750-966    N    0.59596001    0.72122000    0.70461011    -0.37120000
opls_239-967    N    0.22134999    0.33765004    0.39147007    -0.15140000
opls_750-968    N    0.08160008    0.21379998    0.04941990    -0.31400000
opls_750-969    N    0.31221003    0.44481996    0.40579024    -0.31570000
opls_750-970    N    0.66769010    0.77887004    0.07495009    -0.37110000
opls_239-971    N    0.04525004    0.16195004    0.38734010    -0.15170000
opls_750-972    N    0.68092997    0.21359002    0.72914014    -0.31390000
opls_750-973    N    0.45237998    0.44482997    0.37746005    -0.31580000
opls_750-974    N    0.09596001    0.77878000    0.70461011    -0.37130000
opls_239-975    N    0.72134999    0.16234996    0.39147007    -0.15140000
opls_750-976    N    0.91840013    0.21379998    0.95058010    -0.31410000
opls_750-977    N    0.68778997    0.44481996    0.59421011    -0.31580000
opls_750-978    N    0.33231011    0.77887004    0.92505027    -0.37130000
opls_239-979    N    0.95474995    0.16195004    0.61266026    -0.15170000
opls_750-980    N    0.31907002    0.21359002    0.27086021    -0.31400000
opls_750-981    N    0.54762002    0.44482997    0.62253995    -0.31580000
opls_750-982    N    0.90403999    0.77878000    0.29538989    -0.37130000
opls_239-983    N    0.27865001    0.16234996    0.60852993    -0.15140000
opls_750-984    N    0.91840013    0.78620002    0.95058010    -0.31410000
opls_750-985    N    0.68778997    0.55518004    0.59421011    -0.31570000
opls_750-986    N    0.33231011    0.22112996    0.92505027    -0.37130000
opls_239-987    N    0.95474995    0.83804996    0.61266026    -0.15170000
opls_750-988    N    0.31907002    0.78640998    0.27086021    -0.31390000
opls_750-989    N    0.54762002    0.55517003    0.62253995    -0.31570000
opls_750-990    N    0.90403999    0.22122000    0.29538989    -0.37130000
opls_239-991    N    0.27865001    0.83765004    0.60852993    -0.15140000
opls_750-992    N    0.08160008    0.78620002    0.04941990    -0.31410000
opls_750-993    N    0.31221003    0.55518004    0.40579024    -0.31580000
opls_750-994    N    0.66769010    0.22112996    0.07495009    -0.37100000
opls_239-995    N    0.04525004    0.83804996    0.38734010    -0.15170000
opls_750-996    N    0.68092997    0.78640998    0.72914014    -0.31400000
opls_750-997    N    0.45237998    0.55517003    0.37746005    -0.31570000
opls_750-998    N    0.09596001    0.22122000    0.70461011    -0.37130000
opls_239-999    N    0.72134999    0.83765004    0.39147007    -0.15140000
opls_146-1000    H    0.07859001    0.25126996    0.94124033    0.11050000
opls_146-1001    H    0.06013011    0.23794003    0.01227020    0.10910000
opls_146-1002    H    0.62439008    0.70482997    0.98973011    0.11000000
opls_146-1003    H    0.64285004    0.71814000    0.91988012    0.11030000
opls_144-1004    H    0.58803004    0.69206002    0.02991993    0.10580000
opls_146-1005    H    0.57005010    0.67210004    0.08475010    0.10910000
opls_146-1006    H    0.56188001    0.66292005    0.16611990    0.11050000
opls_146-1007    H    0.57690993    0.70650001    0.22138993    0.11340000
opls_146-1008    H    0.58360008    0.71570000    0.14042998    0.10770000
opls_146-1009    H    0.04129002    0.19807997    0.27418013    0.11150000
opls_146-1010    H    0.03253004    0.18878995    0.35536019    0.10950000
opls_146-1011    H    0.57499992    0.64841004    0.31761018    0.11320000
opls_146-1012    H    0.58522008    0.65778998    0.23697004    0.11330000
opls_146-1013    H    0.85645014    0.98412004    0.47788995    0.10920000
opls_146-1014    H    0.83236002    0.96039003    0.48290001    0.11300000
opls_146-1015    H    0.32083012    0.46138005    0.33048998    0.10910000
opls_146-1016    H    0.34517992    0.48518999    0.32588012    0.10880000
opls_144-1017    H    0.30963002    0.43954995    0.47798000    0.10780000
opls_146-1018    H    0.29659004    0.42371001    0.35488995    0.10910000
opls_146-1019    H    0.27867005    0.39922005    0.33960999    0.11330000
opls_146-1020    H    0.77141004    0.89102998    0.49135004    0.10880000
opls_146-1021    H    0.79004012    0.91564998    0.50697017    0.10650000
opls_146-1022    H    0.28781997    0.36751004    0.45661015    0.11060000
opls_146-1023    H    0.26589004    0.34346003    0.44523004    0.10750000
opls_146-1024    H    0.71232013    0.86187001    0.33884996    0.11040000
opls_146-1025    H    0.73414009    0.88599005    0.35012001    0.10910000
opls_146-1026    H    0.67984009    0.74612999    0.95169031    0.10950000
opls_146-1027    H    0.69194990    0.75623998    0.03014005    0.11080000
opls_146-1028    H    0.12489003    0.28817995    0.01834009    0.11440000
opls_146-1029    H    0.11230007    0.27765004    0.94245023    0.11360000
opls_144-1030    H    0.12926005    0.28814005    0.09567997    0.11280000
opls_146-1031    H    0.12372008    0.30620002    0.15824016    0.11060000
opls_146-1032    H    0.14131009    0.31974002    0.22626993    0.10920000
opls_146-1033    H    0.22179997    0.29763003    0.20930018    0.10910000
opls_146-1034    H    0.20432996    0.28433001    0.14025990    0.10950000
opls_146-1035    H    0.73397997    0.82299997    0.23489005    0.11060000
opls_146-1036    H    0.75040011    0.83492995    0.30749001    0.11040000
opls_146-1037    H    0.17012993    0.32568005    0.37853989    0.11060000
opls_146-1038    H    0.15411992    0.31343996    0.30716020    0.11340000
opls_146-1039    H    0.68439998    0.25127996    0.83644999    0.11040000
opls_146-1040    H    0.70229014    0.23793003    0.76509030    0.11100000
opls_146-1041    H    0.13931998    0.70435002    0.79088027    0.11440000
opls_146-1042    H    0.12142997    0.71767005    0.86106006    0.11290000
opls_144-1043    H    0.17488004    0.69182005    0.74858008    0.10580000
opls_146-1044    H    0.19304009    0.67200000    0.69328003    0.11080000
opls_146-1045    H    0.20149004    0.66296996    0.61185020    0.11040000
opls_146-1046    H    0.18476995    0.70642999    0.55701003    0.11320000
opls_146-1047    H    0.17784009    0.71549004    0.63811005    0.11110000
opls_146-1048    H    0.72097005    0.19861005    0.50467007    0.11440000
opls_146-1049    H    0.73154993    0.18944997    0.42388020    0.11110000
opls_146-1050    H    0.19143000    0.64831000    0.46013016    0.11110000
opls_146-1051    H    0.17938995    0.65754000    0.54030006    0.11050000
opls_146-1052    H    0.90812012    0.98417995    0.30565014    0.10650000
opls_146-1053    H    0.93223999    0.96046005    0.30045999    0.11320000
opls_146-1054    H    0.44380014    0.46135004    0.45288003    0.11080000
opls_146-1055    H    0.41942013    0.48514997    0.45765997    0.10630000
opls_144-1056    H    0.45489008    0.43964998    0.30519991    0.10780000
opls_146-1057    H    0.46818002    0.42361997    0.42818991    0.10460000
opls_146-1058    H    0.48630001    0.39910001    0.44268017    0.11090000
opls_146-1059    H    0.99301003    0.89120004    0.29073001    0.10930000
opls_146-1060    H    0.97424000    0.91581004    0.27575021    0.10880000
opls_146-1061    H    0.47697994    0.36754995    0.32549993    0.10950000
opls_146-1062    H    0.49987000    0.34366999    0.33517022    0.11170000
opls_146-1063    H    0.05426001    0.86224003    0.44010993    0.10910000
opls_146-1064    H    0.03129008    0.88618001    0.43078016    0.10950000
opls_146-1065    H    0.08442013    0.74570995    0.82713022    0.11060000
opls_146-1066    H    0.07217012    0.75587996    0.74881020    0.11040000
opls_146-1067    H    0.63807011    0.28839003    0.76181005    0.11370000
opls_146-1068    H    0.65077015    0.27786000    0.83769026    0.11460000
opls_144-1069    H    0.63473015    0.28761997    0.68374015    0.10480000
opls_146-1070    H    0.64162014    0.30467002    0.61872014    0.11110000
opls_146-1071    H    0.62474008    0.31815000    0.54998001    0.10650000
opls_146-1072    H    0.54207003    0.29869998    0.57171004    0.11100000
opls_146-1073    H    0.55891005    0.28538005    0.64124022    0.10820000
opls_146-1074    H    0.03316005    0.82477995    0.54518005    0.10880000
opls_146-1075    H    0.01772007    0.83707995    0.47242001    0.11220000
opls_146-1076    H    0.59452011    0.32363998    0.39825997    0.11060000
opls_146-1077    H    0.60971995    0.31112002    0.46975008    0.11320000
opls_146-1078    H    0.92140998    0.25126996    0.05876003    0.11040000
opls_146-1079    H    0.93987009    0.23794003    0.98773016    0.10910000
opls_146-1080    H    0.37560992    0.70482997    0.01026989    0.11010000
opls_146-1081    H    0.35714996    0.71814000    0.08011988    0.11040000
opls_144-1082    H    0.41197017    0.69206002    0.97008007    0.10580000
opls_146-1083    H    0.42995010    0.67210004    0.91525026    0.10910000
opls_146-1084    H    0.43811999    0.66292005    0.83388010    0.11050000
opls_146-1085    H    0.42309007    0.70650001    0.77861007    0.11340000
opls_146-1086    H    0.41640013    0.71570000    0.85957002    0.10770000
opls_146-1087    H    0.95870997    0.19807997    0.72582023    0.11150000
opls_146-1088    H    0.96746995    0.18878995    0.64464017    0.10950000
opls_146-1089    H    0.42500007    0.64841004    0.68239018    0.11320000
opls_146-1090    H    0.41478013    0.65778998    0.76302996    0.11320000
opls_146-1091    H    0.14355008    0.98412004    0.52211005    0.10910000
opls_146-1092    H    0.16763998    0.96039003    0.51709999    0.11300000
opls_146-1093    H    0.67917009    0.46138005    0.66951002    0.10910000
opls_146-1094    H    0.65482007    0.48518999    0.67412024    0.10880000
opls_144-1095    H    0.69036998    0.43954995    0.52202000    0.10780000
opls_146-1096    H    0.70340996    0.42371001    0.64511005    0.10910000
opls_146-1097    H    0.72132995    0.39922005    0.66039001    0.11320000
opls_146-1098    H    0.22858996    0.89102998    0.50864996    0.10880000
opls_146-1099    H    0.20996009    0.91564998    0.49303019    0.10660000
opls_146-1100    H    0.71218003    0.36751004    0.54339021    0.10950000
opls_146-1101    H    0.73410996    0.34346003    0.55476996    0.10760000
opls_146-1102    H    0.28768009    0.86187001    0.66115004    0.11040000
opls_146-1103    H    0.26586012    0.88599005    0.64987999    0.10920000
opls_146-1104    H    0.32015991    0.74612999    0.04831005    0.10950000
opls_146-1105    H    0.30805009    0.75623998    0.96986031    0.11080000
opls_146-1106    H    0.87511017    0.28817995    0.98166027    0.11440000
opls_146-1107    H    0.88769993    0.27765004    0.05755013    0.11360000
opls_144-1108    H    0.87074016    0.28814005    0.90432003    0.11280000
opls_146-1109    H    0.87628012    0.30620002    0.84176020    0.11060000
opls_146-1110    H    0.85869012    0.31974002    0.77373007    0.10910000
opls_146-1111    H    0.77820002    0.29763003    0.79070018    0.10910000
opls_146-1112    H    0.79567004    0.28433001    0.85974010    0.10950000
opls_146-1113    H    0.26602003    0.82299997    0.76510995    0.11070000
opls_146-1114    H    0.24960010    0.83492995    0.69250999    0.11040000
opls_146-1115    H    0.82987007    0.32568005    0.62146011    0.11060000
opls_146-1116    H    0.84588007    0.31343996    0.69284016    0.11340000
opls_146-1117    H    0.31560002    0.25127996    0.16355001    0.11040000
opls_146-1118    H    0.29771006    0.23793003    0.23491006    0.11090000
opls_146-1119    H    0.86068002    0.70435002    0.20912009    0.11450000
opls_146-1120    H    0.87857003    0.71767005    0.13893994    0.11290000
opls_144-1121    H    0.82511996    0.69182005    0.25141992    0.10580000
opls_146-1122    H    0.80696012    0.67200000    0.30671997    0.11090000
opls_146-1123    H    0.79850996    0.66296996    0.38815016    0.11040000
opls_146-1124    H    0.81523005    0.70642999    0.44298997    0.11320000
opls_146-1125    H    0.82216012    0.71549004    0.36188995    0.11110000
opls_146-1126    H    0.27902995    0.19861005    0.49532993    0.11440000
opls_146-1127    H    0.26845007    0.18944997    0.57612015    0.11110000
opls_146-1128    H    0.80856999    0.64831000    0.53987020    0.11120000
opls_146-1129    H    0.82061005    0.65754000    0.45969994    0.11050000
opls_146-1130    H    0.09188009    0.98417995    0.69435022    0.10650000
opls_146-1131    H    0.06776001    0.96046005    0.69954001    0.11320000
opls_146-1132    H    0.55620007    0.46135004    0.54711997    0.11080000
opls_146-1133    H    0.58058008    0.48514997    0.54234003    0.10630000
opls_144-1134    H    0.54511013    0.43964998    0.69480009    0.10780000
opls_146-1135    H    0.53181998    0.42361997    0.57181009    0.10460000
opls_146-1136    H    0.51369998    0.39910001    0.55732019    0.11090000
opls_146-1137    H    0.00698997    0.89120004    0.70926999    0.10920000
opls_146-1138    H    0.02576000    0.91581004    0.72425014    0.10880000
opls_146-1139    H    0.52302006    0.36754995    0.67450007    0.10910000
opls_146-1140    H    0.50012999    0.34366999    0.66483013    0.11170000
opls_146-1141    H    0.94573999    0.86224003    0.55989007    0.10910000
opls_146-1142    H    0.96871013    0.88618001    0.56922020    0.10950000
opls_146-1143    H    0.91558008    0.74570995    0.17287013    0.11060000
opls_146-1144    H    0.92783009    0.75587996    0.25119016    0.11080000
opls_146-1145    H    0.36193010    0.28839003    0.23818995    0.11380000
opls_146-1146    H    0.34923006    0.27786000    0.16231009    0.11440000
opls_144-1147    H    0.36527006    0.28761997    0.31626020    0.10480000
opls_146-1148    H    0.35838006    0.30467002    0.38128022    0.11110000
opls_146-1149    H    0.37526013    0.31815000    0.45001999    0.10650000
opls_146-1150    H    0.45792997    0.29869998    0.42828996    0.11090000
opls_146-1151    H    0.44108994    0.28538005    0.35876014    0.10820000
opls_146-1152    H    0.96683995    0.82477995    0.45481995    0.10880000
opls_146-1153    H    0.98228014    0.83707995    0.52757999    0.11220000
opls_146-1154    H    0.40548010    0.32363998    0.60174003    0.11060000
opls_146-1155    H    0.39028005    0.31112002    0.53024992    0.11320000
opls_146-1156    H    0.92140998    0.74873004    0.05876003    0.11040000
opls_146-1157    H    0.93987009    0.76205997    0.98773016    0.10910000
opls_146-1158    H    0.37560992    0.29517003    0.01026989    0.11000000
opls_146-1159    H    0.35714996    0.28186000    0.08011988    0.11030000
opls_144-1160    H    0.41197017    0.30793998    0.97008007    0.10580000
opls_146-1161    H    0.42995010    0.32789996    0.91525026    0.10910000
opls_146-1162    H    0.43811999    0.33707995    0.83388010    0.11050000
opls_146-1163    H    0.42309007    0.29349999    0.77861007    0.11340000
opls_146-1164    H    0.41640013    0.28430000    0.85957002    0.10770000
opls_146-1165    H    0.95870997    0.80192003    0.72582023    0.11150000
opls_146-1166    H    0.96746995    0.81121005    0.64464017    0.10950000
opls_146-1167    H    0.42500007    0.35158996    0.68239018    0.11320000
opls_146-1168    H    0.41478013    0.34221002    0.76302996    0.11320000
opls_146-1169    H    0.14355008    0.01587996    0.52211005    0.10910000
opls_146-1170    H    0.16763998    0.03960997    0.51709999    0.11300000
opls_146-1171    H    0.67917009    0.53861995    0.66951002    0.10910000
opls_146-1172    H    0.65482007    0.51481001    0.67412024    0.10880000
opls_144-1173    H    0.69036998    0.56045005    0.52202000    0.10780000
opls_146-1174    H    0.70340996    0.57628999    0.64511005    0.10910000
opls_146-1175    H    0.72132995    0.60077995    0.66039001    0.11320000
opls_146-1176    H    0.22858996    0.10897002    0.50864996    0.10880000
opls_146-1177    H    0.20996009    0.08435002    0.49303019    0.10650000
opls_146-1178    H    0.71218003    0.63248996    0.54339021    0.10950000
opls_146-1179    H    0.73410996    0.65653997    0.55476996    0.10750000
opls_146-1180    H    0.28768009    0.13812999    0.66115004    0.11040000
opls_146-1181    H    0.26586012    0.11400995    0.64987999    0.10910000
opls_146-1182    H    0.32015991    0.25387001    0.04831005    0.10950000
opls_146-1183    H    0.30805009    0.24376002    0.96986031    0.11080000
opls_146-1184    H    0.87511017    0.71182005    0.98166027    0.11440000
opls_146-1185    H    0.88769993    0.72234996    0.05755013    0.11360000
opls_144-1186    H    0.87074016    0.71185995    0.90432003    0.11280000
opls_146-1187    H    0.87628012    0.69379998    0.84176020    0.11060000
opls_146-1188    H    0.85869012    0.68025998    0.77373007    0.10910000
opls_146-1189    H    0.77820002    0.70236997    0.79070018    0.10910000
opls_146-1190    H    0.79567004    0.71566999    0.85974010    0.10950000
opls_146-1191    H    0.26602003    0.17700003    0.76510995    0.11060000
opls_146-1192    H    0.24960010    0.16507005    0.69250999    0.11040000
opls_146-1193    H    0.82987007    0.67431995    0.62146011    0.11060000
opls_146-1194    H    0.84588007    0.68656004    0.69284016    0.11340000
opls_146-1195    H    0.31560002    0.74872004    0.16355001    0.11040000
opls_146-1196    H    0.29771006    0.76206997    0.23491006    0.11090000
opls_146-1197    H    0.86068002    0.29564998    0.20912009    0.11440000
opls_146-1198    H    0.87857003    0.28232995    0.13893994    0.11290000
opls_144-1199    H    0.82511996    0.30817995    0.25141992    0.10580000
opls_146-1200    H    0.80696012    0.32800000    0.30671997    0.11090000
opls_146-1201    H    0.79850996    0.33703004    0.38815016    0.11040000
opls_146-1202    H    0.81523005    0.29357001    0.44298997    0.11320000
opls_146-1203    H    0.82216012    0.28450996    0.36188995    0.11110000
opls_146-1204    H    0.27902995    0.80138995    0.49532993    0.11440000
opls_146-1205    H    0.26845007    0.81055003    0.57612015    0.11110000
opls_146-1206    H    0.80856999    0.35169000    0.53987020    0.11110000
opls_146-1207    H    0.82061005    0.34246000    0.45969994    0.11050000
opls_146-1208    H    0.09188009    0.01582005    0.69435022    0.10650000
opls_146-1209    H    0.06776001    0.03953995    0.69954001    0.11330000
opls_146-1210    H    0.55620007    0.53864996    0.54711997    0.11080000
opls_146-1211    H    0.58058008    0.51485003    0.54234003    0.10630000
opls_144-1212    H    0.54511013    0.56035002    0.69480009    0.10780000
opls_146-1213    H    0.53181998    0.57638003    0.57181009    0.10460000
opls_146-1214    H    0.51369998    0.60089999    0.55732019    0.11090000
opls_146-1215    H    0.00698997    0.10879996    0.70926999    0.10910000
opls_146-1216    H    0.02576000    0.08418996    0.72425014    0.10890000
opls_146-1217    H    0.52302006    0.63245005    0.67450007    0.10910000
opls_146-1218    H    0.50012999    0.65633001    0.66483013    0.11170000
opls_146-1219    H    0.94573999    0.13775997    0.55989007    0.10910000
opls_146-1220    H    0.96871013    0.11381999    0.56922020    0.10950000
opls_146-1221    H    0.91558008    0.25429005    0.17287013    0.11070000
opls_146-1222    H    0.92783009    0.24412004    0.25119016    0.11080000
opls_146-1223    H    0.36193010    0.71160997    0.23818995    0.11370000
opls_146-1224    H    0.34923006    0.72214000    0.16231009    0.11440000
opls_144-1225    H    0.36527006    0.71238003    0.31626020    0.10480000
opls_146-1226    H    0.35838006    0.69532998    0.38128022    0.11110000
opls_146-1227    H    0.37526013    0.68185000    0.45001999    0.10650000
opls_146-1228    H    0.45792997    0.70130002    0.42828996    0.11090000
opls_146-1229    H    0.44108994    0.71461995    0.35876014    0.10820000
opls_146-1230    H    0.96683995    0.17522005    0.45481995    0.10880000
opls_146-1231    H    0.98228014    0.16292005    0.52757999    0.11220000
opls_146-1232    H    0.40548010    0.67636002    0.60174003    0.11060000
opls_146-1233    H    0.39028005    0.68887998    0.53024992    0.11320000
opls_146-1234    H    0.07859001    0.74873004    0.94124033    0.11040000
opls_146-1235    H    0.06013011    0.76205997    0.01227020    0.10910000
opls_146-1236    H    0.62439008    0.29517003    0.98973011    0.11000000
opls_146-1237    H    0.64285004    0.28186000    0.91988012    0.11030000
opls_144-1238    H    0.58803004    0.30793998    0.02991993    0.10580000
opls_146-1239    H    0.57005010    0.32789996    0.08475010    0.10910000
opls_146-1240    H    0.56188001    0.33707995    0.16611990    0.11050000
opls_146-1241    H    0.57690993    0.29349999    0.22138993    0.11350000
opls_146-1242    H    0.58360008    0.28430000    0.14042998    0.10770000
opls_146-1243    H    0.04129002    0.80192003    0.27418013    0.11150000
opls_146-1244    H    0.03253004    0.81121005    0.35536019    0.10950000
opls_146-1245    H    0.57499992    0.35158996    0.31761018    0.11330000
opls_146-1246    H    0.58522008    0.34221002    0.23697004    0.11320000
opls_146-1247    H    0.85645014    0.01587996    0.47788995    0.10910000
opls_146-1248    H    0.83236002    0.03960997    0.48290001    0.11300000
opls_146-1249    H    0.32083012    0.53861995    0.33048998    0.10910000
opls_146-1250    H    0.34517992    0.51481001    0.32588012    0.10880000
opls_144-1251    H    0.30963002    0.56045005    0.47798000    0.10780000
opls_146-1252    H    0.29659004    0.57628999    0.35488995    0.10910000
opls_146-1253    H    0.27867005    0.60077995    0.33960999    0.11320000
opls_146-1254    H    0.77141004    0.10897002    0.49135004    0.10880000
opls_146-1255    H    0.79004012    0.08435002    0.50697017    0.10660000
opls_146-1256    H    0.28781997    0.63248996    0.45661015    0.11060000
opls_146-1257    H    0.26589004    0.65653997    0.44523004    0.10750000
opls_146-1258    H    0.71232013    0.13812999    0.33884996    0.11040000
opls_146-1259    H    0.73414009    0.11400995    0.35012001    0.10910000
opls_146-1260    H    0.67984009    0.25387001    0.95169031    0.10950000
opls_146-1261    H    0.69194990    0.24376002    0.03014005    0.11080000
opls_146-1262    H    0.12489003    0.71182005    0.01834009    0.11440000
opls_146-1263    H    0.11230007    0.72234996    0.94245023    0.11360000
opls_144-1264    H    0.12926005    0.71185995    0.09567997    0.11280000
opls_146-1265    H    0.12372008    0.69379998    0.15824016    0.11060000
opls_146-1266    H    0.14131009    0.68025998    0.22626993    0.10910000
opls_146-1267    H    0.22179997    0.70236997    0.20930018    0.10910000
opls_146-1268    H    0.20432996    0.71566999    0.14025990    0.10960000
opls_146-1269    H    0.73397997    0.17700003    0.23489005    0.11060000
opls_146-1270    H    0.75040011    0.16507005    0.30749001    0.11050000
opls_146-1271    H    0.17012993    0.67431995    0.37853989    0.11060000
opls_146-1272    H    0.15411992    0.68656004    0.30716020    0.11340000
opls_146-1273    H    0.68439998    0.74872004    0.83644999    0.11040000
opls_146-1274    H    0.70229014    0.76206997    0.76509030    0.11090000
opls_146-1275    H    0.13931998    0.29564998    0.79088027    0.11440000
opls_146-1276    H    0.12142997    0.28232995    0.86106006    0.11290000
opls_144-1277    H    0.17488004    0.30817995    0.74858008    0.10580000
opls_146-1278    H    0.19304009    0.32800000    0.69328003    0.11080000
opls_146-1279    H    0.20149004    0.33703004    0.61185020    0.11040000
opls_146-1280    H    0.18476995    0.29357001    0.55701003    0.11320000
opls_146-1281    H    0.17784009    0.28450996    0.63811005    0.11110000
opls_146-1282    H    0.72097005    0.80138995    0.50467007    0.11450000
opls_146-1283    H    0.73154993    0.81055003    0.42388020    0.11110000
opls_146-1284    H    0.19143000    0.35169000    0.46013016    0.11110000
opls_146-1285    H    0.17938995    0.34246000    0.54030006    0.11050000
opls_146-1286    H    0.90812012    0.01582005    0.30565014    0.10650000
opls_146-1287    H    0.93223999    0.03953995    0.30045999    0.11320000
opls_146-1288    H    0.44380014    0.53864996    0.45288003    0.11080000
opls_146-1289    H    0.41942013    0.51485003    0.45765997    0.10630000
opls_144-1290    H    0.45489008    0.56035002    0.30519991    0.10780000
opls_146-1291    H    0.46818002    0.57638003    0.42818991    0.10460000
opls_146-1292    H    0.48630001    0.60089999    0.44268017    0.11090000
opls_146-1293    H    0.99301003    0.10879996    0.29073001    0.10910000
opls_146-1294    H    0.97424000    0.08418996    0.27575021    0.10880000
opls_146-1295    H    0.47697994    0.63245005    0.32549993    0.10960000
opls_146-1296    H    0.49987000    0.65633001    0.33517022    0.11170000
opls_146-1297    H    0.05426001    0.13775997    0.44010993    0.10910000
opls_146-1298    H    0.03129008    0.11381999    0.43078016    0.10950000
opls_146-1299    H    0.08442013    0.25429005    0.82713022    0.11060000
opls_146-1300    H    0.07217012    0.24412004    0.74881020    0.11040000
opls_146-1301    H    0.63807011    0.71160997    0.76181005    0.11370000
opls_146-1302    H    0.65077015    0.72214000    0.83769026    0.11440000
opls_144-1303    H    0.63473015    0.71238003    0.68374015    0.10480000
opls_146-1304    H    0.64162014    0.69532998    0.61872014    0.11110000
opls_146-1305    H    0.62474008    0.68185000    0.54998001    0.10650000
opls_146-1306    H    0.54207003    0.70130002    0.57171004    0.11090000
opls_146-1307    H    0.55891005    0.71461995    0.64124022    0.10820000
opls_146-1308    H    0.03316005    0.17522005    0.54518005    0.10880000
opls_146-1309    H    0.01772007    0.16292005    0.47242001    0.11220000
opls_146-1310    H    0.59452011    0.67636002    0.39825997    0.11070000
opls_146-1311    H    0.60971995    0.68887998    0.46975008    0.11320000
opls_146-1312    H    0.57859001    0.75126996    0.94124033    0.11040000
opls_146-1313    H    0.56013011    0.73794003    0.01227020    0.10910000
opls_146-1314    H    0.12439008    0.20482997    0.98973011    0.11000000
opls_146-1315    H    0.14285004    0.21814000    0.91988012    0.11030000
opls_144-1316    H    0.08803004    0.19206002    0.02991993    0.10590000
opls_146-1317    H    0.07005010    0.17210004    0.08475010    0.10910000
opls_146-1318    H    0.06188001    0.16292005    0.16611990    0.11050000
opls_146-1319    H    0.07690993    0.20650001    0.22138993    0.11340000
opls_146-1320    H    0.08360008    0.21570000    0.14042998    0.10770000
opls_146-1321    H    0.54129002    0.69807997    0.27418013    0.11150000
opls_146-1322    H    0.53253004    0.68878995    0.35536019    0.10950000
opls_146-1323    H    0.07499992    0.14841004    0.31761018    0.11320000
opls_146-1324    H    0.08522008    0.15778998    0.23697004    0.11320000
opls_146-1325    H    0.35645014    0.48412004    0.47788995    0.10910000
opls_146-1326    H    0.33236002    0.46039003    0.48290001    0.11310000
opls_146-1327    H    0.82083012    0.96138005    0.33048998    0.10910000
opls_146-1328    H    0.84517992    0.98518999    0.32588012    0.10880000
opls_144-1329    H    0.80963002    0.93954995    0.47798000    0.10780000
opls_146-1330    H    0.79659004    0.92371001    0.35488995    0.10910000
opls_146-1331    H    0.77867005    0.89922005    0.33960999    0.11320000
opls_146-1332    H    0.27141004    0.39102998    0.49135004    0.10880000
opls_146-1333    H    0.29004012    0.41564998    0.50697017    0.10650000
opls_146-1334    H    0.78781997    0.86751004    0.45661015    0.11060000
opls_146-1335    H    0.76589004    0.84346003    0.44523004    0.10750000
opls_146-1336    H    0.21232013    0.36187001    0.33884996    0.11040000
opls_146-1337    H    0.23414009    0.38599005    0.35012001    0.10910000
opls_146-1338    H    0.17984009    0.24612999    0.95169031    0.10950000
opls_146-1339    H    0.19194990    0.25623998    0.03014005    0.11080000
opls_146-1340    H    0.62489003    0.78817995    0.01834009    0.11440000
opls_146-1341    H    0.61230007    0.77765004    0.94245023    0.11360000
opls_144-1342    H    0.62926005    0.78814005    0.09567997    0.11290000
opls_146-1343    H    0.62372008    0.80620002    0.15824016    0.11060000
opls_146-1344    H    0.64131009    0.81974002    0.22626993    0.10910000
opls_146-1345    H    0.72179997    0.79763003    0.20930018    0.10920000
opls_146-1346    H    0.70432996    0.78433001    0.14025990    0.10950000
opls_146-1347    H    0.23397997    0.32299997    0.23489005    0.11060000
opls_146-1348    H    0.25040011    0.33492995    0.30749001    0.11040000
opls_146-1349    H    0.67012993    0.82568005    0.37853989    0.11060000
opls_146-1350    H    0.65411992    0.81343996    0.30716020    0.11340000
opls_146-1351    H    0.18439998    0.75127996    0.83644999    0.11040000
opls_146-1352    H    0.20229014    0.73793003    0.76509030    0.11090000
opls_146-1353    H    0.63931998    0.20435002    0.79088027    0.11440000
opls_146-1354    H    0.62142997    0.21767005    0.86106006    0.11290000
opls_144-1355    H    0.67488004    0.19182005    0.74858008    0.10580000
opls_146-1356    H    0.69304009    0.17200000    0.69328003    0.11080000
opls_146-1357    H    0.70149004    0.16296996    0.61185020    0.11040000
opls_146-1358    H    0.68476995    0.20642999    0.55701003    0.11320000
opls_146-1359    H    0.67784009    0.21549004    0.63811005    0.11120000
opls_146-1360    H    0.22097005    0.69861005    0.50467007    0.11440000
opls_146-1361    H    0.23154993    0.68944997    0.42388020    0.11110000
opls_146-1362    H    0.69143000    0.14831000    0.46013016    0.11110000
opls_146-1363    H    0.67938995    0.15754000    0.54030006    0.11050000
opls_146-1364    H    0.40812012    0.48417995    0.30565014    0.10650000
opls_146-1365    H    0.43223999    0.46046005    0.30045999    0.11320000
opls_146-1366    H    0.94380014    0.96135004    0.45288003    0.11080000
opls_146-1367    H    0.91942013    0.98514997    0.45765997    0.10630000
opls_144-1368    H    0.95489008    0.93964998    0.30519991    0.10780000
opls_146-1369    H    0.96818002    0.92361997    0.42818991    0.10460000
opls_146-1370    H    0.98630001    0.89910001    0.44268017    0.11090000
opls_146-1371    H    0.49301003    0.39120004    0.29073001    0.10910000
opls_146-1372    H    0.47424000    0.41581004    0.27575021    0.10880000
opls_146-1373    H    0.97697994    0.86754995    0.32549993    0.10950000
opls_146-1374    H    0.99987000    0.84366999    0.33517022    0.11170000
opls_146-1375    H    0.55426001    0.36224003    0.44010993    0.10910000
opls_146-1376    H    0.53129008    0.38618001    0.43078016    0.10950000
opls_146-1377    H    0.58442013    0.24570995    0.82713022    0.11060000
opls_146-1378    H    0.57217012    0.25587996    0.74881020    0.11050000
opls_146-1379    H    0.13807011    0.78839003    0.76181005    0.11370000
opls_146-1380    H    0.15077015    0.77786000    0.83769026    0.11440000
opls_144-1381    H    0.13473015    0.78761997    0.68374015    0.10490000
opls_146-1382    H    0.14162014    0.80467002    0.61872014    0.11110000
opls_146-1383    H    0.12474008    0.81815000    0.54998001    0.10650000
opls_146-1384    H    0.04207003    0.79869998    0.57171004    0.11090000
opls_146-1385    H    0.05891005    0.78538005    0.64124022    0.10830000
opls_146-1386    H    0.53316005    0.32477995    0.54518005    0.10880000
opls_146-1387    H    0.51772007    0.33707995    0.47242001    0.11220000
opls_146-1388    H    0.09452011    0.82363998    0.39825997    0.11060000
opls_146-1389    H    0.10971995    0.81112002    0.46975008    0.11320000
opls_146-1390    H    0.42140998    0.75126996    0.05876003    0.11040000
opls_146-1391    H    0.43987009    0.73794003    0.98773016    0.10910000
opls_146-1392    H    0.87560992    0.20482997    0.01026989    0.11000000
opls_146-1393    H    0.85714996    0.21814000    0.08011988    0.11030000
opls_144-1394    H    0.91197017    0.19206002    0.97008007    0.10580000
opls_146-1395    H    0.92995010    0.17210004    0.91525026    0.10910000
opls_146-1396    H    0.93811999    0.16292005    0.83388010    0.11050000
opls_146-1397    H    0.92309007    0.20650001    0.77861007    0.11340000
opls_146-1398    H    0.91640013    0.21570000    0.85957002    0.10770000
opls_146-1399    H    0.45870997    0.69807997    0.72582023    0.11150000
opls_146-1400    H    0.46746995    0.68878995    0.64464017    0.10950000
opls_146-1401    H    0.92500007    0.14841004    0.68239018    0.11320000
opls_146-1402    H    0.91478013    0.15778998    0.76302996    0.11320000
opls_146-1403    H    0.64355008    0.48412004    0.52211005    0.10910000
opls_146-1404    H    0.66763998    0.46039003    0.51709999    0.11300000
opls_146-1405    H    0.17917009    0.96138005    0.66951002    0.10920000
opls_146-1406    H    0.15482007    0.98518999    0.67412024    0.10890000
opls_144-1407    H    0.19036998    0.93954995    0.52202000    0.10780000
opls_146-1408    H    0.20340996    0.92371001    0.64511005    0.10910000
opls_146-1409    H    0.22132995    0.89922005    0.66039001    0.11320000
opls_146-1410    H    0.72858996    0.39102998    0.50864996    0.10880000
opls_146-1411    H    0.70996009    0.41564998    0.49303019    0.10650000
opls_146-1412    H    0.21218003    0.86751004    0.54339021    0.10950000
opls_146-1413    H    0.23410996    0.84346003    0.55476996    0.10750000
opls_146-1414    H    0.78768009    0.36187001    0.66115004    0.11040000
opls_146-1415    H    0.76586012    0.38599005    0.64987999    0.10910000
opls_146-1416    H    0.82015991    0.24612999    0.04831005    0.10950000
opls_146-1417    H    0.80805009    0.25623998    0.96986031    0.11080000
opls_146-1418    H    0.37511017    0.78817995    0.98166027    0.11440000
opls_146-1419    H    0.38769993    0.77765004    0.05755013    0.11360000
opls_144-1420    H    0.37074016    0.78814005    0.90432003    0.11280000
opls_146-1421    H    0.37628012    0.80620002    0.84176020    0.11060000
opls_146-1422    H    0.35869012    0.81974002    0.77373007    0.10910000
opls_146-1423    H    0.27820002    0.79763003    0.79070018    0.10910000
opls_146-1424    H    0.29567004    0.78433001    0.85974010    0.10950000
opls_146-1425    H    0.76602003    0.32299997    0.76510995    0.11080000
opls_146-1426    H    0.74960010    0.33492995    0.69250999    0.11040000
opls_146-1427    H    0.32987007    0.82568005    0.62146011    0.11060000
opls_146-1428    H    0.34588007    0.81343996    0.69284016    0.11340000
opls_146-1429    H    0.81560002    0.75127996    0.16355001    0.11040000
opls_146-1430    H    0.79771006    0.73793003    0.23491006    0.11090000
opls_146-1431    H    0.36068002    0.20435002    0.20912009    0.11440000
opls_146-1432    H    0.37857003    0.21767005    0.13893994    0.11290000
opls_144-1433    H    0.32511996    0.19182005    0.25141992    0.10580000
opls_146-1434    H    0.30696012    0.17200000    0.30671997    0.11100000
opls_146-1435    H    0.29850996    0.16296996    0.38815016    0.11040000
opls_146-1436    H    0.31523005    0.20642999    0.44298997    0.11320000
opls_146-1437    H    0.32216012    0.21549004    0.36188995    0.11110000
opls_146-1438    H    0.77902995    0.69861005    0.49532993    0.11440000
opls_146-1439    H    0.76845007    0.68944997    0.57612015    0.11110000
opls_146-1440    H    0.30856999    0.14831000    0.53987020    0.11110000
opls_146-1441    H    0.32061005    0.15754000    0.45969994    0.11050000
opls_146-1442    H    0.59188009    0.48417995    0.69435022    0.10650000
opls_146-1443    H    0.56776001    0.46046005    0.69954001    0.11320000
opls_146-1444    H    0.05620007    0.96135004    0.54711997    0.11080000
opls_146-1445    H    0.08058008    0.98514997    0.54234003    0.10630000
opls_144-1446    H    0.04511013    0.93964998    0.69480009    0.10780000
opls_146-1447    H    0.03181998    0.92361997    0.57181009    0.10460000
opls_146-1448    H    0.01369998    0.89910001    0.55732019    0.11090000
opls_146-1449    H    0.50698997    0.39120004    0.70926999    0.10910000
opls_146-1450    H    0.52576000    0.41581004    0.72425014    0.10880000
opls_146-1451    H    0.02302006    0.86754995    0.67450007    0.10910000
opls_146-1452    H    0.00012999    0.84366999    0.66483013    0.11170000
opls_146-1453    H    0.44573999    0.36224003    0.55989007    0.10910000
opls_146-1454    H    0.46871013    0.38618001    0.56922020    0.10950000
opls_146-1455    H    0.41558008    0.24570995    0.17287013    0.11060000
opls_146-1456    H    0.42783009    0.25587996    0.25119016    0.11080000
opls_146-1457    H    0.86193010    0.78839003    0.23818995    0.11370000
opls_146-1458    H    0.84923006    0.77786000    0.16231009    0.11440000
opls_144-1459    H    0.86527006    0.78761997    0.31626020    0.10480000
opls_146-1460    H    0.85838006    0.80467002    0.38128022    0.11110000
opls_146-1461    H    0.87526013    0.81815000    0.45001999    0.10650000
opls_146-1462    H    0.95792997    0.79869998    0.42828996    0.11090000
opls_146-1463    H    0.94108994    0.78538005    0.35876014    0.10820000
opls_146-1464    H    0.46683995    0.32477995    0.45481995    0.10880000
opls_146-1465    H    0.48228014    0.33707995    0.52757999    0.11220000
opls_146-1466    H    0.90548010    0.82363998    0.60174003    0.11060000
opls_146-1467    H    0.89028005    0.81112002    0.53024992    0.11320000
opls_146-1468    H    0.42140998    0.24873004    0.05876003    0.11040000
opls_146-1469    H    0.43987009    0.26205997    0.98773016    0.10910000
opls_146-1470    H    0.87560992    0.79517003    0.01026989    0.11000000
opls_146-1471    H    0.85714996    0.78186000    0.08011988    0.11030000
opls_144-1472    H    0.91197017    0.80793998    0.97008007    0.10580000
opls_146-1473    H    0.92995010    0.82789996    0.91525026    0.10910000
opls_146-1474    H    0.93811999    0.83707995    0.83388010    0.11050000
opls_146-1475    H    0.92309007    0.79349999    0.77861007    0.11340000
opls_146-1476    H    0.91640013    0.78430000    0.85957002    0.10780000
opls_146-1477    H    0.45870997    0.30192003    0.72582023    0.11150000
opls_146-1478    H    0.46746995    0.31121005    0.64464017    0.10950000
opls_146-1479    H    0.92500007    0.85158996    0.68239018    0.11320000
opls_146-1480    H    0.91478013    0.84221002    0.76302996    0.11320000
opls_146-1481    H    0.64355008    0.51587996    0.52211005    0.10910000
opls_146-1482    H    0.66763998    0.53960997    0.51709999    0.11300000
opls_146-1483    H    0.17917009    0.03861995    0.66951002    0.10910000
opls_146-1484    H    0.15482007    0.01481001    0.67412024    0.10880000
opls_144-1485    H    0.19036998    0.06045005    0.52202000    0.10780000
opls_146-1486    H    0.20340996    0.07628999    0.64511005    0.10910000
opls_146-1487    H    0.22132995    0.10077995    0.66039001    0.11330000
opls_146-1488    H    0.72858996    0.60897002    0.50864996    0.10880000
opls_146-1489    H    0.70996009    0.58435002    0.49303019    0.10650000
opls_146-1490    H    0.21218003    0.13248996    0.54339021    0.10950000
opls_146-1491    H    0.23410996    0.15653997    0.55476996    0.10750000
opls_146-1492    H    0.78768009    0.63812999    0.66115004    0.11050000
opls_146-1493    H    0.76586012    0.61400995    0.64987999    0.10910000
opls_146-1494    H    0.82015991    0.75387001    0.04831005    0.10960000
opls_146-1495    H    0.80805009    0.74376002    0.96986031    0.11080000
opls_146-1496    H    0.37511017    0.21182005    0.98166027    0.11440000
opls_146-1497    H    0.38769993    0.22234996    0.05755013    0.11360000
opls_144-1498    H    0.37074016    0.21185995    0.90432003    0.11280000
opls_146-1499    H    0.37628012    0.19379998    0.84176020    0.11060000
opls_146-1500    H    0.35869012    0.18025998    0.77373007    0.10910000
opls_146-1501    H    0.27820002    0.20236997    0.79070018    0.10910000
opls_146-1502    H    0.29567004    0.21566999    0.85974010    0.10950000
opls_146-1503    H    0.76602003    0.67700003    0.76510995    0.11060000
opls_146-1504    H    0.74960010    0.66507005    0.69250999    0.11040000
opls_146-1505    H    0.32987007    0.17431995    0.62146011    0.11060000
opls_146-1506    H    0.34588007    0.18656004    0.69284016    0.11340000
opls_146-1507    H    0.81560002    0.24872004    0.16355001    0.11040000
opls_146-1508    H    0.79771006    0.26206997    0.23491006    0.11090000
opls_146-1509    H    0.36068002    0.79564998    0.20912009    0.11440000
opls_146-1510    H    0.37857003    0.78232995    0.13893994    0.11290000
opls_144-1511    H    0.32511996    0.80817995    0.25141992    0.10580000
opls_146-1512    H    0.30696012    0.82800000    0.30671997    0.11090000
opls_146-1513    H    0.29850996    0.83703004    0.38815016    0.11040000
opls_146-1514    H    0.31523005    0.79357001    0.44298997    0.11320000
opls_146-1515    H    0.32216012    0.78450996    0.36188995    0.11110000
opls_146-1516    H    0.77902995    0.30138995    0.49532993    0.11440000
opls_146-1517    H    0.76845007    0.31055003    0.57612015    0.11110000
opls_146-1518    H    0.30856999    0.85169000    0.53987020    0.11110000
opls_146-1519    H    0.32061005    0.84246000    0.45969994    0.11050000
opls_146-1520    H    0.59188009    0.51582005    0.69435022    0.10660000
opls_146-1521    H    0.56776001    0.53953995    0.69954001    0.11320000
opls_146-1522    H    0.05620007    0.03864996    0.54711997    0.11090000
opls_146-1523    H    0.08058008    0.01485003    0.54234003    0.10630000
opls_144-1524    H    0.04511013    0.06035002    0.69480009    0.10780000
opls_146-1525    H    0.03181998    0.07638003    0.57181009    0.10460000
opls_146-1526    H    0.01369998    0.10089999    0.55732019    0.11090000
opls_146-1527    H    0.50698997    0.60879996    0.70926999    0.10910000
opls_146-1528    H    0.52576000    0.58418996    0.72425014    0.10880000
opls_146-1529    H    0.02302006    0.13245005    0.67450007    0.10910000
opls_146-1530    H    0.00012999    0.15633001    0.66483013    0.11170000
opls_146-1531    H    0.44573999    0.63775997    0.55989007    0.10910000
opls_146-1532    H    0.46871013    0.61381999    0.56922020    0.10950000
opls_146-1533    H    0.41558008    0.75429005    0.17287013    0.11060000
opls_146-1534    H    0.42783009    0.74412004    0.25119016    0.11080000
opls_146-1535    H    0.86193010    0.21160997    0.23818995    0.11370000
opls_146-1536    H    0.84923006    0.22214000    0.16231009    0.11440000
opls_144-1537    H    0.86527006    0.21238003    0.31626020    0.10490000
opls_146-1538    H    0.85838006    0.19532998    0.38128022    0.11110000
opls_146-1539    H    0.87526013    0.18185000    0.45001999    0.10650000
opls_146-1540    H    0.95792997    0.20130002    0.42828996    0.11090000
opls_146-1541    H    0.94108994    0.21461995    0.35876014    0.10820000
opls_146-1542    H    0.46683995    0.67522005    0.45481995    0.10880000
opls_146-1543    H    0.48228014    0.66292005    0.52757999    0.11230000
opls_146-1544    H    0.90548010    0.17636002    0.60174003    0.11060000
opls_146-1545    H    0.89028005    0.18887998    0.53024992    0.11320000
opls_146-1546    H    0.57859001    0.24873004    0.94124033    0.11040000
opls_146-1547    H    0.56013011    0.26205997    0.01227020    0.10910000
opls_146-1548    H    0.12439008    0.79517003    0.98973011    0.11000000
opls_146-1549    H    0.14285004    0.78186000    0.91988012    0.11030000
opls_144-1550    H    0.08803004    0.80793998    0.02991993    0.10580000
opls_146-1551    H    0.07005010    0.82789996    0.08475010    0.10910000
opls_146-1552    H    0.06188001    0.83707995    0.16611990    0.11050000
opls_146-1553    H    0.07690993    0.79349999    0.22138993    0.11340000
opls_146-1554    H    0.08360008    0.78430000    0.14042998    0.10780000
opls_146-1555    H    0.54129002    0.30192003    0.27418013    0.11150000
opls_146-1556    H    0.53253004    0.31121005    0.35536019    0.10950000
opls_146-1557    H    0.07499992    0.85158996    0.31761018    0.11330000
opls_146-1558    H    0.08522008    0.84221002    0.23697004    0.11320000
opls_146-1559    H    0.35645014    0.51587996    0.47788995    0.10910000
opls_146-1560    H    0.33236002    0.53960997    0.48290001    0.11300000
opls_146-1561    H    0.82083012    0.03861995    0.33048998    0.10910000
opls_146-1562    H    0.84517992    0.01481001    0.32588012    0.10880000
opls_144-1563    H    0.80963002    0.06045005    0.47798000    0.10780000
opls_146-1564    H    0.79659004    0.07628999    0.35488995    0.10910000
opls_146-1565    H    0.77867005    0.10077995    0.33960999    0.11320000
opls_146-1566    H    0.27141004    0.60897002    0.49135004    0.10880000
opls_146-1567    H    0.29004012    0.58435002    0.50697017    0.10650000
opls_146-1568    H    0.78781997    0.13248996    0.45661015    0.11060000
opls_146-1569    H    0.76589004    0.15653997    0.44523004    0.10750000
opls_146-1570    H    0.21232013    0.63812999    0.33884996    0.11040000
opls_146-1571    H    0.23414009    0.61400995    0.35012001    0.10910000
opls_146-1572    H    0.17984009    0.75387001    0.95169031    0.10950000
opls_146-1573    H    0.19194990    0.74376002    0.03014005    0.11080000
opls_146-1574    H    0.62489003    0.21182005    0.01834009    0.11440000
opls_146-1575    H    0.61230007    0.22234996    0.94245023    0.11360000
opls_144-1576    H    0.62926005    0.21185995    0.09567997    0.11280000
opls_146-1577    H    0.62372008    0.19379998    0.15824016    0.11060000
opls_146-1578    H    0.64131009    0.18025998    0.22626993    0.10910000
opls_146-1579    H    0.72179997    0.20236997    0.20930018    0.10920000
opls_146-1580    H    0.70432996    0.21566999    0.14025990    0.10960000
opls_146-1581    H    0.23397997    0.67700003    0.23489005    0.11070000
opls_146-1582    H    0.25040011    0.66507005    0.30749001    0.11040000
opls_146-1583    H    0.67012993    0.17431995    0.37853989    0.11060000
opls_146-1584    H    0.65411992    0.18656004    0.30716020    0.11350000
opls_146-1585    H    0.18439998    0.24872004    0.83644999    0.11040000
opls_146-1586    H    0.20229014    0.26206997    0.76509030    0.11090000
opls_146-1587    H    0.63931998    0.79564998    0.79088027    0.11440000
opls_146-1588    H    0.62142997    0.78232995    0.86106006    0.11290000
opls_144-1589    H    0.67488004    0.80817995    0.74858008    0.10580000
opls_146-1590    H    0.69304009    0.82800000    0.69328003    0.11080000
opls_146-1591    H    0.70149004    0.83703004    0.61185020    0.11040000
opls_146-1592    H    0.68476995    0.79357001    0.55701003    0.11320000
opls_146-1593    H    0.67784009    0.78450996    0.63811005    0.11110000
opls_146-1594    H    0.22097005    0.30138995    0.50467007    0.11440000
opls_146-1595    H    0.23154993    0.31055003    0.42388020    0.11110000
opls_146-1596    H    0.69143000    0.85169000    0.46013016    0.11110000
opls_146-1597    H    0.67938995    0.84246000    0.54030006    0.11050000
opls_146-1598    H    0.40812012    0.51582005    0.30565014    0.10650000
opls_146-1599    H    0.43223999    0.53953995    0.30045999    0.11320000
opls_146-1600    H    0.94380014    0.03864996    0.45288003    0.11080000
opls_146-1601    H    0.91942013    0.01485003    0.45765997    0.10630000
opls_144-1602    H    0.95489008    0.06035002    0.30519991    0.10790000
opls_146-1603    H    0.96818002    0.07638003    0.42818991    0.10460000
opls_146-1604    H    0.98630001    0.10089999    0.44268017    0.11090000
opls_146-1605    H    0.49301003    0.60879996    0.29073001    0.10910000
opls_146-1606    H    0.47424000    0.58418996    0.27575021    0.10880000
opls_146-1607    H    0.97697994    0.13245005    0.32549993    0.10950000
opls_146-1608    H    0.99987000    0.15633001    0.33517022    0.11170000
opls_146-1609    H    0.55426001    0.63775997    0.44010993    0.10910000
opls_146-1610    H    0.53129008    0.61381999    0.43078016    0.10950000
opls_146-1611    H    0.58442013    0.75429005    0.82713022    0.11060000
opls_146-1612    H    0.57217012    0.74412004    0.74881020    0.11040000
opls_146-1613    H    0.13807011    0.21160997    0.76181005    0.11370000
opls_146-1614    H    0.15077015    0.22214000    0.83769026    0.11440000
opls_144-1615    H    0.13473015    0.21238003    0.68374015    0.10480000
opls_146-1616    H    0.14162014    0.19532998    0.61872014    0.11110000
opls_146-1617    H    0.12474008    0.18185000    0.54998001    0.10650000
opls_146-1618    H    0.04207003    0.20130002    0.57171004    0.11090000
opls_146-1619    H    0.05891005    0.21461995    0.64124022    0.10820000
opls_146-1620    H    0.53316005    0.67522005    0.54518005    0.10880000
opls_146-1621    H    0.51772007    0.66292005    0.47242001    0.11230000
opls_146-1622    H    0.09452011    0.17636002    0.39825997    0.11060000
opls_146-1623    H    0.10971995    0.18887998    0.46975008    0.11320000
