#======================================================================
# Crystal Data Generated By AuToFF
#----------------------------------------------------------------------

data_AuToFF_phase_1

_cell_length_a                         35.0000
_cell_length_b                         28.3000
_cell_length_c                         19.0000
_cell_angle_alpha                      90.00
_cell_angle_beta                       87.40
_cell_angle_gamma                      90.00
_symmetry_space_group_name_H-M_alt     'P 1'
_symmetry_space_group_IT_number        1

loop_
_space_group_symop_operation_xyz
   'x, y, z'

loop_
   _atom_site_label
   _atom_site_type_symbol
   _atom_site_fract_x
   _atom_site_fract_y
   _atom_site_fract_z
   _atom_site_charge
opls_750-0    N    0.27380985    0.83773993    0.25491980    -0.20110000
opls_750-1    N    0.47697011    0.67179011    0.26975982    -0.20760000
opls_750-2    N    0.48151984    0.33773993    0.25159006    -0.21950000
opls_750-3    N    0.27840990    0.17183004    0.23676005    -0.14730000
opls_750-4    N    0.98151984    0.83773993    0.25159006    -0.19840000
opls_750-5    N    0.77835990    0.67179011    0.23676005    -0.20760000
opls_750-6    N    0.77380985    0.33773993    0.25491980    -0.21950000
opls_750-7    N    0.97692008    0.17183004    0.26974981    -0.14730000
opls_750-8    N    0.72618987    0.83773993    0.74508020    -0.19840000
opls_750-9    N    0.52302989    0.67179011    0.73024018    -0.20760000
opls_750-10    N    0.51847987    0.33773993    0.74840994    -0.21950000
opls_750-11    N    0.72158981    0.17183004    0.76323995    -0.14730000
opls_750-12    N    0.01847987    0.83773993    0.74840994    -0.19840000
opls_750-13    N    0.22163981    0.67179011    0.76323995    -0.20760000
opls_750-14    N    0.22618987    0.33773993    0.74508020    -0.21950000
opls_750-15    N    0.02307992    0.17183004    0.73025019    -0.14730000
opls_142-16    C    0.26799004    0.87869011    0.27988023    0.09560000
opls_142-17    C    0.48153012    0.63124982    0.24267983    0.09440000
opls_700-18    C    0.59080987    0.55280000    0.25529018    0.08410000
opls_145-19    C    0.55654991    0.53080000    0.29287993    -0.07050000
opls_145-20    C    0.51838986    0.55439011    0.29235992    -0.07050000
opls_700-21    C    0.51415010    0.59993004    0.25338981    0.08790000
opls_145-22    C    0.54813999    0.62193004    0.21535012    -0.07050000
opls_145-23    C    0.58638006    0.59850000    0.21638013    -0.07050000
opls_700-24    C    0.23286010    0.90429011    0.27164017    0.06200000
opls_145-25    C    0.23108991    0.94686996    0.23785012    -0.09620000
opls_145-26    C    0.19694002    0.96910000    0.23142983    -0.09280000
opls_145-27    C    0.16398990    0.94909011    0.25870001    0.14240000
opls_145-28    C    0.16560996    0.90664982    0.29246003    -0.09660000
opls_145-29    C    0.19974995    0.88440989    0.29889981    -0.09540000
opls_136-30    C    0.41122996    0.66863004    0.29129989    0.03720000
opls_136-31    C    0.30209005    0.77139011    0.20898989    0.07110000
opls_136-32    C    0.44742006    0.73773004    0.31999996    0.02330000
opls_136-33    C    0.33870006    0.84130000    0.23802978    0.07250000
opls_139-34    C    0.44330986    0.69920000    0.26773984    0.16070000
opls_136-35    C    0.44153989    0.71536996    0.19062993    0.07090000
opls_139-36    C    0.30664009    0.80977986    0.26331002    0.16070000
opls_136-37    C    0.30860997    0.79392014    0.33801008    0.07180000
opls_142-38    C    0.48733993    0.37869011    0.22663015    0.09930000
opls_145-39    C    0.52338011    0.40233993    0.23428013    0.06750000
opls_142-40    C    0.27379989    0.13124982    0.26384004    0.09890000
opls_145-41    C    0.52871003    0.44590000    0.20457007    -0.09670000
opls_145-42    C    0.56240989    0.46910000    0.21127013    -0.08070000
opls_145-43    C    0.59135012    0.44909011    0.24781986    0.11830000
opls_145-44    C    0.58617008    0.40565018    0.27749989    -0.09820000
opls_145-45    C    0.55247997    0.38245018    0.27080984    -0.08640000
opls_700-46    C    0.16451985    0.05280000    0.25123021    0.08370000
opls_145-47    C    0.19801009    0.03146007    0.28699019    -0.06950000
opls_145-48    C    0.23483997    0.05780989    0.29058020    -0.07050000
opls_700-49    C    0.23826004    0.10600000    0.25916997    0.08860000
opls_145-50    C    0.20489007    0.12765018    0.22383991    -0.07050000
opls_145-51    C    0.16813993    0.10110989    0.21974991    -0.07050000
opls_136-52    C    0.45104993    0.27220000    0.29926019    0.02230000
opls_136-53    C    0.34373009    0.16783993    0.21342024    0.07250000
opls_136-54    C    0.41441000    0.34103993    0.27111015    0.03720000
opls_136-55    C    0.30666001    0.23747986    0.18493986    0.07110000
opls_139-56    C    0.44686006    0.31104982    0.24759015    0.16230000
opls_136-57    C    0.44562990    0.29542014    0.17013989    0.07090000
opls_139-58    C    0.31128005    0.19876007    0.23867993    0.16060000
opls_136-59    C    0.31271985    0.21410989    0.31371981    0.07180000
opls_142-60    C    0.98733993    0.87869011    0.22663015    0.09130000
opls_142-61    C    0.77379989    0.63124982    0.26384004    0.09440000
opls_700-62    C    0.66451985    0.55280000    0.25123021    0.08310000
opls_145-63    C    0.69878011    0.53080000    0.21363994    -0.07050000
opls_145-64    C    0.73694012    0.55439011    0.21414994    -0.07050000
opls_700-65    C    0.74118988    0.59993004    0.25312005    0.08790000
opls_145-66    C    0.70719002    0.62193004    0.29116975    -0.07050000
opls_145-67    C    0.66894991    0.59850000    0.29013026    -0.07050000
opls_145-68    C    0.02247991    0.90429011    0.23488022    0.06200000
opls_145-69    C    0.02424005    0.94686996    0.26866026    -0.09620000
opls_145-70    C    0.05839000    0.96910000    0.27509004    -0.09620000
opls_145-71    C    0.09135012    0.94909011    0.24781986    0.14250000
opls_145-72    C    0.08972001    0.90664982    0.21404983    -0.09820000
opls_145-73    C    0.05558003    0.88440989    0.20761004    -0.09540000
opls_136-74    C    0.84410005    0.66863004    0.21521998    0.03720000
opls_136-75    C    0.95323997    0.77139011    0.29752998    0.07110000
opls_136-76    C    0.80790992    0.73773004    0.18650990    0.02330000
opls_136-77    C    0.91662995    0.84130000    0.26849009    0.07150000
opls_139-78    C    0.81201987    0.69920000    0.23878003    0.16070000
opls_136-79    C    0.81378984    0.71536996    0.31588994    0.07090000
opls_139-80    C    0.94868993    0.80977986    0.24320985    0.16070000
opls_136-81    C    0.94672004    0.79392014    0.16850979    0.07180000
opls_142-82    C    0.76799004    0.37869011    0.27988023    0.09930000
opls_145-83    C    0.73194989    0.40233993    0.27224026    0.06750000
opls_142-84    C    0.98153012    0.13124982    0.24267983    0.09890000
opls_145-85    C    0.72661998    0.44590000    0.30194980    -0.09670000
opls_145-86    C    0.69292011    0.46910000    0.29525027    -0.08240000
opls_145-87    C    0.66398990    0.44909011    0.25870001    0.11830000
opls_145-88    C    0.66915989    0.40565018    0.22900997    -0.09820000
opls_145-89    C    0.70285004    0.38245018    0.23571003    -0.08640000
opls_700-90    C    0.09080987    0.05280000    0.25529018    0.08370000
opls_145-91    C    0.05731991    0.03146007    0.21953021    -0.06950000
opls_145-92    C    0.02048999    0.05780989    0.21593019    -0.07050000
opls_700-93    C    0.01706994    0.10600000    0.24733989    0.08860000
opls_145-94    C    0.05043991    0.12765018    0.28266995    -0.07050000
opls_145-95    C    0.08719008    0.10110989    0.28676996    -0.07050000
opls_136-96    C    0.80428007    0.27220000    0.20726021    0.02230000
opls_136-97    C    0.91159991    0.16783993    0.29310016    0.07250000
opls_136-98    C    0.84091996    0.34103993    0.23540023    0.03720000
opls_136-99    C    0.94866997    0.23747986    0.32157000    0.07110000
opls_139-100    C    0.80846990    0.31104982    0.25892024    0.16230000
opls_136-101    C    0.80969983    0.29542014    0.33637998    0.07090000
opls_139-102    C    0.94404996    0.19876007    0.26783994    0.16060000
opls_136-103    C    0.94260988    0.21410989    0.19280006    0.07180000
opls_137-104    C    0.12766986    0.97357986    0.25326020    -0.04170000
opls_701-105    C    0.12766986    0.02642014    0.25326020    -0.03480000
opls_700-106    C    0.62766986    0.52642014    0.25326020    -0.02420000
opls_700-107    C    0.62766986    0.47357986    0.25326020    -0.04530000
opls_142-108    C    0.73200995    0.87869011    0.72012029    0.09560000
opls_142-109    C    0.51846988    0.63124982    0.75732017    0.09440000
opls_700-110    C    0.40918985    0.55280000    0.74470982    0.08410000
opls_145-111    C    0.44344981    0.53080000    0.70712007    -0.07050000
opls_145-112    C    0.48160986    0.55439011    0.70764008    -0.07050000
opls_700-113    C    0.48584990    0.59993004    0.74661019    0.08790000
opls_145-114    C    0.45186001    0.62193004    0.78464988    -0.07050000
opls_145-115    C    0.41361994    0.59850000    0.78361987    -0.07050000
opls_700-116    C    0.76713990    0.90429011    0.72835983    0.06200000
opls_145-117    C    0.76890980    0.94686996    0.76214988    -0.09620000
opls_145-118    C    0.80305998    0.96910000    0.76857017    -0.09290000
opls_145-119    C    0.83600982    0.94909011    0.74129999    0.14240000
opls_145-120    C    0.83439004    0.90664982    0.70753997    -0.09660000
opls_145-121    C    0.80025005    0.88440989    0.70110019    -0.09540000
opls_136-122    C    0.58877004    0.66863004    0.70870011    0.03720000
opls_136-123    C    0.69790995    0.77139011    0.79101011    0.07110000
opls_136-124    C    0.55257994    0.73773004    0.68000004    0.02330000
opls_136-125    C    0.66129994    0.84130000    0.76197022    0.07250000
opls_139-126    C    0.55668986    0.69920000    0.73226016    0.16070000
opls_136-127    C    0.55845983    0.71536996    0.80937007    0.07090000
opls_139-128    C    0.69335991    0.80977986    0.73668998    0.16070000
opls_136-129    C    0.69139003    0.79392014    0.66198992    0.07180000
opls_142-130    C    0.51266007    0.37869011    0.77336985    0.09930000
opls_145-131    C    0.47661989    0.40233993    0.76571987    0.06750000
opls_142-132    C    0.72619982    0.13124982    0.73615996    0.09890000
opls_145-133    C    0.47128997    0.44590000    0.79542993    -0.09700000
opls_145-134    C    0.43758982    0.46910000    0.78872987    -0.08070000
opls_145-135    C    0.40864988    0.44909011    0.75218014    0.11830000
opls_145-136    C    0.41382992    0.40565018    0.72250011    -0.09820000
opls_145-137    C    0.44752003    0.38245018    0.72919016    -0.08640000
opls_700-138    C    0.83547987    0.05280000    0.74876979    0.08370000
opls_145-139    C    0.80198991    0.03146007    0.71300981    -0.06950000
opls_145-140    C    0.76516003    0.05780989    0.70941980    -0.07050000
opls_700-141    C    0.76173996    0.10600000    0.74083003    0.08860000
opls_145-142    C    0.79510993    0.12765018    0.77616009    -0.07050000
opls_145-143    C    0.83185978    0.10110989    0.78025009    -0.07050000
opls_136-144    C    0.54895007    0.27220000    0.70073981    0.02230000
opls_136-145    C    0.65626990    0.16783993    0.78658029    0.07260000
opls_136-146    C    0.58559000    0.34103993    0.72888985    0.03720000
opls_136-147    C    0.69333999    0.23747986    0.81506014    0.07110000
opls_139-148    C    0.55313994    0.31104982    0.75240985    0.16230000
opls_136-149    C    0.55436982    0.29542014    0.82986011    0.07090000
opls_139-150    C    0.68871995    0.19876007    0.76132007    0.16060000
opls_136-151    C    0.68727986    0.21410989    0.68628019    0.07180000
opls_142-152    C    0.01266007    0.87869011    0.77336985    0.09130000
opls_142-153    C    0.22619982    0.63124982    0.73615996    0.09440000
opls_700-154    C    0.33547987    0.55280000    0.74876979    0.08310000
opls_145-155    C    0.30121989    0.53080000    0.78636006    -0.07050000
opls_145-156    C    0.26305988    0.55439011    0.78585006    -0.07050000
opls_700-157    C    0.25880983    0.59993004    0.74687995    0.08790000
opls_145-158    C    0.29280998    0.62193004    0.70883025    -0.07050000
opls_145-159    C    0.33104979    0.59850000    0.70987027    -0.07050000
opls_145-160    C    0.97751981    0.90429011    0.76511978    0.06200000
opls_145-161    C    0.97575994    0.94686996    0.73134026    -0.09620000
opls_145-162    C    0.94161000    0.96910000    0.72490996    -0.09620000
opls_145-163    C    0.90864988    0.94909011    0.75218014    0.14250000
opls_145-164    C    0.91027999    0.90664982    0.78595017    -0.09820000
opls_145-165    C    0.94441997    0.88440989    0.79238996    -0.09540000
opls_136-166    C    0.15589995    0.66863004    0.78478002    0.03720000
opls_136-167    C    0.04676003    0.77139011    0.70247002    0.07110000
opls_136-168    C    0.19208980    0.73773004    0.81349010    0.02330000
opls_136-169    C    0.08337005    0.84130000    0.73150991    0.07150000
opls_139-170    C    0.18797984    0.69920000    0.76121997    0.16070000
opls_136-171    C    0.18620987    0.71536996    0.68411006    0.07090000
opls_139-172    C    0.05130979    0.80977986    0.75679015    0.16070000
opls_136-173    C    0.05327996    0.79392014    0.83149021    0.07180000
opls_142-174    C    0.23200995    0.37869011    0.72012029    0.09930000
opls_145-175    C    0.26804981    0.40233993    0.72776026    0.06750000
opls_142-176    C    0.01846988    0.13124982    0.75732017    0.09890000
opls_145-177    C    0.27338002    0.44590000    0.69805020    -0.09670000
opls_145-178    C    0.30707988    0.46910000    0.70475026    -0.08240000
opls_145-179    C    0.33600982    0.44909011    0.74129999    0.11830000
opls_145-180    C    0.33083982    0.40565018    0.77099003    -0.09810000
opls_145-181    C    0.29714996    0.38245018    0.76428997    -0.08640000
opls_700-182    C    0.90918985    0.05280000    0.74470982    0.08370000
opls_145-183    C    0.94267980    0.03146007    0.78046979    -0.06950000
opls_145-184    C    0.97951001    0.05780989    0.78406981    -0.07050000
opls_700-185    C    0.98293006    0.10600000    0.75266011    0.08860000
opls_145-186    C    0.94955981    0.12765018    0.71733005    -0.07050000
opls_145-187    C    0.91280992    0.10110989    0.71323004    -0.07050000
opls_136-188    C    0.19571993    0.27220000    0.79273979    0.02230000
opls_136-189    C    0.08839980    0.16783993    0.70689984    0.07250000
opls_136-190    C    0.15908003    0.34103993    0.76460029    0.03720000
opls_136-191    C    0.05133003    0.23747986    0.67843000    0.07110000
opls_139-192    C    0.19152980    0.31104982    0.74108029    0.16230000
opls_136-193    C    0.19029988    0.29542014    0.66362002    0.07090000
opls_139-194    C    0.05595004    0.19876007    0.73216006    0.16060000
opls_136-195    C    0.05738984    0.21410989    0.80719994    0.07180000
opls_137-196    C    0.87232986    0.97357986    0.74673980    -0.04170000
opls_701-197    C    0.87232986    0.02642014    0.74673980    -0.03480000
opls_700-198    C    0.37232986    0.52642014    0.74673980    -0.02420000
opls_700-199    C    0.37232986    0.47357986    0.74673980    -0.04530000
F2_Mo4f2-200    Mo    0.33553010    0.69147986    0.39567997    1.39860000
F2_Mo4f2-201    Mo    0.36546994    0.72464982    0.09657995    1.39920000
F2_Mo4f2-202    Mo    0.32614005    0.66170000    0.22666018    1.39860000
F2_Mo4f2-203    Mo    0.38426007    0.78453993    0.43433977    1.39870000
F2_Mo4f2-204    Mo    0.41419986    0.81770989    0.13523027    1.39920000
F2_Mo4f2-205    Mo    0.42349995    0.84763004    0.30390023    1.39860000
F2_Mo4f2-206    Mo    0.38776989    0.22376007    0.41163008    1.39860000
F2_Mo4f2-207    Mo    0.41950007    0.19313993    0.11239992    1.39920000
F2_Mo4f2-208    Mo    0.42821004    0.16213004    0.28075008    1.39860000
F2_Mo4f2-209    Mo    0.33842006    0.31646007    0.37373001    1.39860000
F2_Mo4f2-210    Mo    0.37014996    0.28585018    0.07449985    1.39920000
F2_Mo4f2-211    Mo    0.32962009    0.34733993    0.20502001    1.39860000
F2_Mo4f2-212    Mo    0.91979992    0.69147986    0.11083990    1.39860000
F2_Mo4f2-213    Mo    0.88986008    0.72464982    0.40993992    1.39920000
F2_Mo4f2-214    Mo    0.92918992    0.66170000    0.27985020    1.39860000
F2_Mo4f2-215    Mo    0.87106994    0.78453993    0.07218010    1.39860000
F2_Mo4f2-216    Mo    0.84114010    0.81770989    0.37128012    1.39920000
F2_Mo4f2-217    Mo    0.83183005    0.84763004    0.20262017    1.39860000
F2_Mo4f2-218    Mo    0.86756013    0.22376007    0.09488979    1.39860000
F2_Mo4f2-219    Mo    0.83582990    0.19313993    0.39410994    1.39920000
F2_Mo4f2-220    Mo    0.82711997    0.16213004    0.22576979    1.39860000
F2_Mo4f2-221    Mo    0.91690995    0.31646007    0.13278986    1.39860000
F2_Mo4f2-222    Mo    0.88518006    0.28585018    0.43202002    1.39920000
F2_Mo4f2-223    Mo    0.92570992    0.34733993    0.30149986    1.39860000
F2_Mo4f2-224    Mo    0.66446990    0.69147986    0.60432003    1.39860000
F2_Mo4f2-225    Mo    0.63452978    0.72464982    0.90342005    1.39920000
F2_Mo4f2-226    Mo    0.67385995    0.66170000    0.77333982    1.39860000
F2_Mo4f2-227    Mo    0.61573993    0.78453993    0.56566023    1.39860000
F2_Mo4f2-228    Mo    0.58579984    0.81770989    0.86477026    1.39920000
F2_Mo4f2-229    Mo    0.57650005    0.84763004    0.69609977    1.39860000
F2_Mo4f2-230    Mo    0.61222983    0.22376007    0.58836992    1.39860000
F2_Mo4f2-231    Mo    0.58049993    0.19313993    0.88760008    1.39920000
F2_Mo4f2-232    Mo    0.57178996    0.16213004    0.71924992    1.39860000
F2_Mo4f2-233    Mo    0.66157994    0.31646007    0.62626999    1.39860000
F2_Mo4f2-234    Mo    0.62985004    0.28585018    0.92550015    1.39920000
F2_Mo4f2-235    Mo    0.67037991    0.34733993    0.79497999    1.39860000
F2_Mo4f2-236    Mo    0.08019980    0.69147986    0.88916010    1.39860000
F2_Mo4f2-237    Mo    0.11013992    0.72464982    0.59006008    1.39920000
F2_Mo4f2-238    Mo    0.07080980    0.66170000    0.72014980    1.39860000
F2_Mo4f2-239    Mo    0.12893006    0.78453993    0.92781990    1.39860000
F2_Mo4f2-240    Mo    0.15885990    0.81770989    0.62871988    1.39930000
F2_Mo4f2-241    Mo    0.16816995    0.84763004    0.79737983    1.39860000
F2_Mo4f2-242    Mo    0.13243987    0.22376007    0.90511021    1.39860000
F2_Mo4f2-243    Mo    0.16416981    0.19313993    0.60589006    1.39920000
F2_Mo4f2-244    Mo    0.17288003    0.16213004    0.77423021    1.39860000
F2_Mo4f2-245    Mo    0.08309005    0.31646007    0.86721014    1.39860000
F2_Mo4f2-246    Mo    0.11481994    0.28585018    0.56797998    1.39930000
F2_Mo4f2-247    Mo    0.07428979    0.34733993    0.69850014    1.39860000
MOF2_O_3-248    O    0.33353008    0.74005018    0.20754998    -0.43880000
MOF2_O_3-249    O    0.37525992    0.69040989    0.29245002    -0.43890000
opls_272-250    O    0.30056004    0.70530989    0.45403004    -0.47390000
opls_180-251    O    0.30641996    0.68449011    0.31498005    -0.47580000
opls_272-252    O    0.39863006    0.70734982    0.03586007    -0.47390000
opls_180-253    O    0.36299994    0.67013993    0.15299013    -0.47580000
opls_272-254    O    0.33600991    0.60622014    0.24806011    -0.47390000
opls_272-255    O    0.34629987    0.63610000    0.41380021    -0.47390000
opls_272-256    O    0.32507006    0.72227986    0.05389022    -0.47390000
opls_272-257    O    0.28622990    0.65972014    0.18151002    -0.47390000
MOF2_O_3-258    O    0.37459002    0.81846996    0.24011983    -0.43880000
MOF2_O_3-259    O    0.41624992    0.76869011    0.32495980    -0.43890000
opls_272-260    O    0.35144990    0.80249011    0.49440002    -0.47390000
opls_180-261    O    0.38712003    0.83862014    0.37901018    -0.47580000
opls_272-262    O    0.44895011    0.80345018    0.07577011    -0.47390000
opls_180-263    O    0.44363006    0.82413993    0.21696020    -0.47580000
opls_272-264    O    0.46371994    0.85010000    0.34937019    -0.46970000
opls_272-265    O    0.42523982    0.78685018    0.47641994    -0.47390000
opls_272-266    O    0.40379995    0.87263004    0.11634978    -0.47390000
opls_272-267    O    0.41336986    0.90253004    0.28237017    -0.47390000
MOF2_O_3-268    O    0.34098988    0.76536996    0.35131009    -0.43890000
MOF2_O_3-269    O    0.40946000    0.74312014    0.18022975    -0.43890000
opls_180-270    O    0.37809982    0.71982014    0.43370017    -0.47580000
opls_180-271    O    0.37064995    0.78984982    0.09883016    -0.47580000
MOF2_O_3-272    O    0.37938000    0.19112014    0.21657981    -0.43890000
MOF2_O_3-273    O    0.42014995    0.24080989    0.30309993    -0.43890000
opls_272-274    O    0.35482989    0.20495018    0.47078993    -0.47390000
opls_180-275    O    0.39139994    0.17012014    0.35538006    -0.47580000
opls_272-276    O    0.45441007    0.20827986    0.05382014    -0.47390000
opls_180-277    O    0.44857001    0.18650000    0.19456978    -0.47580000
opls_272-278    O    0.46819997    0.15983993    0.32693025    -0.46970000
opls_272-279    O    0.42853995    0.22166007    0.45443994    -0.47390000
opls_272-280    O    0.40969007    0.13823004    0.09233980    -0.47390000
opls_272-281    O    0.41868991    0.10726007    0.25804987    -0.47390000
MOF2_O_3-282    O    0.33779996    0.26923004    0.18464008    -0.43890000
MOF2_O_3-283    O    0.37864011    0.31879011    0.27121026    -0.43890000
opls_272-284    O    0.30330000    0.30176007    0.43121024    -0.47390000
opls_180-285    O    0.30966994    0.32366007    0.29260017    -0.47580000
opls_272-286    O    0.40344993    0.30400989    0.01467985    -0.47380000
opls_180-287    O    0.36690996    0.33990000    0.13184995    -0.47580000
opls_272-288    O    0.33888004    0.40279011    0.22760010    -0.47390000
opls_272-289    O    0.34859993    0.37183993    0.39302988    -0.47390000
opls_272-290    O    0.32996986    0.28800000    0.03109991    -0.47390000
opls_272-291    O    0.28994000    0.34913004    0.15916017    -0.47390000
MOF2_O_3-292    O    0.34476985    0.24296996    0.32812991    -0.43890000
MOF2_O_3-293    O    0.41385998    0.26733993    0.15865017    -0.43880000
opls_180-294    O    0.38103004    0.28839011    0.41202996    -0.47580000
opls_180-295    O    0.37590004    0.22070989    0.07568002    -0.47570000
MOF2_O_3-296    O    0.92180994    0.74005018    0.29896989    -0.43890000
MOF2_O_3-297    O    0.88007009    0.69040989    0.21406985    -0.43890000
opls_272-298    O    0.95476997    0.70530989    0.05248983    -0.47390000
opls_180-299    O    0.94891005    0.68449011    0.19153982    -0.47580000
opls_272-300    O    0.85669995    0.70734982    0.47065980    -0.47390000
opls_180-301    O    0.89233006    0.67013993    0.35353027    -0.47580000
opls_272-302    O    0.91932006    0.60622014    0.25844975    -0.47390000
opls_272-303    O    0.90903013    0.63610000    0.09272019    -0.47380000
opls_272-304    O    0.93025994    0.72227986    0.45263018    -0.47390000
opls_272-305    O    0.96910011    0.65972014    0.32500985    -0.47390000
MOF2_O_3-306    O    0.88074996    0.81846996    0.26639003    -0.43890000
MOF2_O_3-307    O    0.83908006    0.76869011    0.18155006    -0.43890000
opls_272-308    O    0.90389011    0.80249011    0.01211985    -0.47390000
opls_180-309    O    0.86820997    0.83862014    0.12751022    -0.47580000
opls_272-310    O    0.80637986    0.80345018    0.43074028    -0.47390000
opls_180-311    O    0.81169994    0.82413993    0.28956020    -0.47580000
opls_272-312    O    0.79161006    0.85010000    0.15715020    -0.46970000
opls_272-313    O    0.83008991    0.78685018    0.03009993    -0.47390000
opls_272-314    O    0.85153007    0.87263004    0.39017009    -0.47390000
opls_272-315    O    0.84195985    0.90253004    0.22415023    -0.47390000
MOF2_O_3-316    O    0.91433985    0.76536996    0.15520978    -0.43890000
MOF2_O_3-317    O    0.84587002    0.74312014    0.32629012    -0.43880000
opls_180-318    O    0.87722989    0.71982014    0.07282023    -0.47580000
opls_180-319    O    0.88468005    0.78984982    0.40769023    -0.47580000
MOF2_O_3-320    O    0.87595002    0.19112014    0.28994006    -0.43890000
MOF2_O_3-321    O    0.83518007    0.24080989    0.20341994    -0.43890000
opls_272-322    O    0.90050012    0.20495018    0.03572994    -0.47390000
opls_180-323    O    0.86394007    0.17012014    0.15113980    -0.47580000
opls_272-324    O    0.80091993    0.20827986    0.45270025    -0.47390000
opls_180-325    O    0.80675997    0.18650000    0.31194008    -0.47580000
opls_272-326    O    0.78713000    0.15983993    0.17958014    -0.46970000
opls_272-327    O    0.82679007    0.22166007    0.05207993    -0.47390000
opls_272-328    O    0.84563991    0.13823004    0.41417006    -0.47390000
opls_272-329    O    0.83664007    0.10726007    0.24845999    -0.47390000
MOF2_O_3-330    O    0.91753005    0.26923004    0.32187979    -0.43890000
MOF2_O_3-331    O    0.87668985    0.31879011    0.23530013    -0.43890000
opls_272-332    O    0.95203000    0.30176007    0.07531016    -0.47390000
opls_180-333    O    0.94566006    0.32366007    0.21392023    -0.47570000
opls_272-334    O    0.85188009    0.30400989    0.49184002    -0.47390000
opls_180-335    O    0.88842006    0.33990000    0.37466992    -0.47580000
opls_272-336    O    0.91644997    0.40279011    0.27891977    -0.47380000
opls_272-337    O    0.90673005    0.37183993    0.11347998    -0.47390000
opls_272-338    O    0.92535987    0.28800000    0.47541996    -0.47390000
opls_272-339    O    0.96539001    0.34913004    0.34736023    -0.47390000
MOF2_O_3-340    O    0.91055988    0.24296996    0.17838996    -0.43890000
MOF2_O_3-341    O    0.84147002    0.26733993    0.34787023    -0.43890000
opls_180-342    O    0.87429994    0.28839011    0.09447990    -0.47580000
opls_180-343    O    0.87942994    0.22070989    0.43082984    -0.47580000
MOF2_O_3-344    O    0.66646992    0.74005018    0.79245002    -0.43890000
MOF2_O_3-345    O    0.62474008    0.69040989    0.70754998    -0.43890000
opls_272-346    O    0.69943996    0.70530989    0.54596996    -0.47390000
opls_180-347    O    0.69358004    0.68449011    0.68501995    -0.47580000
opls_272-348    O    0.60136994    0.70734982    0.96413993    -0.47390000
opls_180-349    O    0.63700006    0.67013993    0.84700987    -0.47580000
opls_272-350    O    0.66398980    0.60622014    0.75193989    -0.47390000
opls_272-351    O    0.65369984    0.63610000    0.58619979    -0.47390000
opls_272-352    O    0.67492994    0.72227986    0.94610978    -0.47390000
opls_272-353    O    0.71376981    0.65972014    0.81848998    -0.47390000
MOF2_O_3-354    O    0.62540998    0.81846996    0.75988017    -0.43890000
MOF2_O_3-355    O    0.58374980    0.76869011    0.67504020    -0.43890000
opls_272-356    O    0.64855010    0.80249011    0.50559998    -0.47390000
opls_180-357    O    0.61287997    0.83862014    0.62098982    -0.47580000
opls_272-358    O    0.55104989    0.80345018    0.92422989    -0.47390000
opls_180-359    O    0.55636994    0.82413993    0.78303980    -0.47580000
opls_272-360    O    0.53628006    0.85010000    0.65062981    -0.46970000
opls_272-361    O    0.57475990    0.78685018    0.52358006    -0.47390000
opls_272-362    O    0.59620005    0.87263004    0.88365022    -0.47390000
opls_272-363    O    0.58662985    0.90253004    0.71762983    -0.47390000
MOF2_O_3-364    O    0.65900983    0.76536996    0.64868991    -0.43890000
MOF2_O_3-365    O    0.59054000    0.74312014    0.81977025    -0.43880000
opls_180-366    O    0.62189989    0.71982014    0.56629983    -0.47580000
opls_180-367    O    0.62935005    0.78984982    0.90116984    -0.47580000
MOF2_O_3-368    O    0.62062000    0.19112014    0.78342019    -0.43890000
MOF2_O_3-369    O    0.57985005    0.24080989    0.69690007    -0.43890000
opls_272-370    O    0.64516982    0.20495018    0.52921007    -0.47390000
opls_180-371    O    0.60860006    0.17012014    0.64461994    -0.47580000
opls_272-372    O    0.54558993    0.20827986    0.94617986    -0.47390000
opls_180-373    O    0.55142999    0.18650000    0.80543022    -0.47580000
opls_272-374    O    0.53180002    0.15983993    0.67307028    -0.46970000
opls_272-375    O    0.57146005    0.22166007    0.54556006    -0.47390000
opls_272-376    O    0.59030993    0.13823004    0.90766020    -0.47390000
opls_272-377    O    0.58130981    0.10726007    0.74195013    -0.47390000
MOF2_O_3-378    O    0.66220004    0.26923004    0.81535992    -0.43890000
MOF2_O_3-379    O    0.62135988    0.31879011    0.72879027    -0.43890000
opls_272-380    O    0.69670000    0.30176007    0.56878976    -0.47390000
opls_180-381    O    0.69033006    0.32366007    0.70739983    -0.47580000
opls_272-382    O    0.59654979    0.30400989    0.98532015    -0.47390000
opls_180-383    O    0.63309004    0.33990000    0.86815005    -0.47580000
opls_272-384    O    0.66111996    0.40279011    0.77239990    -0.47390000
opls_272-385    O    0.65140007    0.37183993    0.60697012    -0.47390000
opls_272-386    O    0.67002986    0.28800000    0.96890009    -0.47390000
opls_272-387    O    0.71006000    0.34913004    0.84083983    -0.47390000
MOF2_O_3-388    O    0.65522986    0.24296996    0.67187009    -0.43890000
MOF2_O_3-389    O    0.58614002    0.26733993    0.84134983    -0.43890000
opls_180-390    O    0.61896996    0.28839011    0.58797004    -0.47580000
opls_180-391    O    0.62409996    0.22070989    0.92431998    -0.47570000
MOF2_O_3-392    O    0.07819006    0.74005018    0.70103011    -0.43880000
MOF2_O_3-393    O    0.11992991    0.69040989    0.78593015    -0.43890000
opls_272-394    O    0.04523003    0.70530989    0.94751017    -0.47390000
opls_180-395    O    0.05108995    0.68449011    0.80846018    -0.47580000
opls_272-396    O    0.14330005    0.70734982    0.52934020    -0.47390000
opls_180-397    O    0.10766992    0.67013993    0.64647026    -0.47570000
opls_272-398    O    0.08067994    0.60622014    0.74155025    -0.47390000
opls_272-399    O    0.09096987    0.63610000    0.90727981    -0.47390000
opls_272-400    O    0.06974006    0.72227986    0.54736982    -0.47380000
opls_272-401    O    0.03089989    0.65972014    0.67499015    -0.47390000
MOF2_O_3-402    O    0.11925004    0.81846996    0.73360997    -0.43890000
MOF2_O_3-403    O    0.16091994    0.76869011    0.81844994    -0.43890000
opls_272-404    O    0.09610989    0.80249011    0.98788015    -0.47390000
opls_180-405    O    0.13179003    0.83862014    0.87248978    -0.47580000
opls_272-406    O    0.19361985    0.80345018    0.56926025    -0.47390000
opls_180-407    O    0.18830006    0.82413993    0.71043980    -0.47580000
opls_272-408    O    0.20838994    0.85010000    0.84284980    -0.46970000
opls_272-409    O    0.16990980    0.78685018    0.96990007    -0.47390000
opls_272-410    O    0.14846993    0.87263004    0.60982991    -0.47390000
opls_272-411    O    0.15803985    0.90253004    0.77585030    -0.47390000
MOF2_O_3-412    O    0.08565987    0.76536996    0.84479022    -0.43890000
MOF2_O_3-413    O    0.15412998    0.74312014    0.67370988    -0.43890000
opls_180-414    O    0.12276981    0.71982014    0.92718030    -0.47570000
opls_180-415    O    0.11531995    0.78984982    0.59230977    -0.47580000
MOF2_O_3-416    O    0.12404998    0.19112014    0.71005994    -0.43890000
MOF2_O_3-417    O    0.16481993    0.24080989    0.79658006    -0.43890000
opls_272-418    O    0.09949988    0.20495018    0.96427006    -0.47390000
opls_180-419    O    0.13605993    0.17012014    0.84886020    -0.47580000
opls_272-420    O    0.19908005    0.20827986    0.54730027    -0.47390000
opls_180-421    O    0.19324003    0.18650000    0.68805992    -0.47580000
opls_272-422    O    0.21287000    0.15983993    0.82041986    -0.46970000
opls_272-423    O    0.17320993    0.22166007    0.94792007    -0.47390000
opls_272-424    O    0.15435981    0.13823004    0.58582994    -0.47390000
opls_272-425    O    0.16335993    0.10726007    0.75154001    -0.47390000
MOF2_O_3-426    O    0.08246995    0.26923004    0.67812021    -0.43890000
MOF2_O_3-427    O    0.12330986    0.31879011    0.76469987    -0.43890000
opls_272-428    O    0.04797000    0.30176007    0.92468984    -0.47390000
opls_180-429    O    0.05433994    0.32366007    0.78607977    -0.47580000
opls_272-430    O    0.14811991    0.30400989    0.50815998    -0.47380000
opls_180-431    O    0.11157994    0.33990000    0.62533008    -0.47580000
opls_272-432    O    0.08355003    0.40279011    0.72108023    -0.47390000
opls_272-433    O    0.09326995    0.37183993    0.88652002    -0.47390000
opls_272-434    O    0.07463984    0.28800000    0.52458004    -0.47390000
opls_272-435    O    0.03460999    0.34913004    0.65263977    -0.47390000
MOF2_O_3-436    O    0.08943984    0.24296996    0.82161004    -0.43890000
MOF2_O_3-437    O    0.15852998    0.26733993    0.65212977    -0.43890000
opls_180-438    O    0.12569978    0.28839011    0.90552010    -0.47580000
opls_180-439    O    0.12057006    0.22070989    0.56917016    -0.47570000
F2_Co6+2-440    Co    0.37506986    0.75435018    0.26586001    1.52910000
F2_Co6+2-441    Co    0.37916984    0.25504982    0.24348013    1.52910000
F2_Co6+2-442    Co    0.88026011    0.75435018    0.24064985    1.52910000
F2_Co6+2-443    Co    0.87615987    0.25504982    0.26304027    1.52910000
F2_Co6+2-444    Co    0.62492985    0.75435018    0.73413999    1.52920000
F2_Co6+2-445    Co    0.62082987    0.25504982    0.75651987    1.52910000
F2_Co6+2-446    Co    0.11973989    0.75435018    0.75935015    1.52910000
F2_Co6+2-447    Co    0.12383983    0.25504982    0.73696026    1.52910000
opls_144-448    H    0.29110992    0.89696007    0.31048016    0.03150000
opls_144-449    H    0.45765992    0.61960989    0.20750994    0.03150000
opls_146-450    H    0.55988001    0.49590989    0.32186978    0.05330000
opls_146-451    H    0.49269010    0.53772014    0.32152995    0.05340000
opls_146-452    H    0.54480987    0.65653993    0.18563005    0.05330000
opls_146-453    H    0.61214984    0.61530989    0.18765002    0.05340000
opls_146-454    H    0.25844988    0.96370000    0.21502979    0.05340000
opls_146-455    H    0.19570984    0.00455018    0.20322026    0.05330000
opls_146-456    H    0.13831008    0.88970989    0.31536993    0.05340000
opls_146-457    H    0.20096995    0.84897986    0.32713994    0.05340000
opls_140-458    H    0.41055012    0.63663993    0.25498987    0.04860000
opls_140-459    H    0.41762004    0.65603004    0.34656994    0.04860000
opls_140-460    H    0.27476992    0.75080000    0.22220981    0.04860000
opls_140-461    H    0.29983986    0.78857986    0.15507017    0.04860000
opls_140-462    H    0.45146986    0.72132014    0.37397026    0.04860000
opls_140-463    H    0.47436003    0.75822014    0.30370002    0.04860000
opls_140-464    H    0.33366989    0.85262014    0.18158009    0.04860000
opls_140-465    H    0.33869009    0.87390989    0.27316016    0.04860000
opls_140-466    H    0.44060998    0.68300000    0.15510020    0.04860000
opls_140-467    H    0.46809997    0.73699011    0.17565978    0.04860000
opls_140-468    H    0.28161005    0.77307986    0.35280004    0.04860000
opls_140-469    H    0.30995999    0.82604982    0.37393021    0.04860000
opls_144-470    H    0.46386983    0.39743993    0.19757024    0.03150000
opls_144-471    H    0.29805985    0.11393993    0.29265022    0.03150000
opls_146-472    H    0.50487001    0.46280000    0.17414981    0.05260000
opls_146-473    H    0.56678997    0.50543004    0.18644984    0.05340000
opls_146-474    H    0.61003999    0.38880000    0.30789012    0.05260000
opls_146-475    H    0.54811003    0.34610989    0.29559009    0.05340000
opls_146-476    H    0.19507007    0.99484982    0.31146011    0.05340000
opls_146-477    H    0.26011011    0.04110989    0.31719022    0.05260000
opls_146-478    H    0.20750996    0.16447986    0.19999010    0.05340000
opls_146-479    H    0.14295005    0.11766996    0.19269996    0.05260000
opls_140-480    H    0.47813999    0.25156007    0.28443018    0.04860000
opls_140-481    H    0.45454010    0.28924982    0.35296021    0.04860000
opls_140-482    H    0.34418007    0.13475018    0.24752008    0.04870000
opls_140-483    H    0.33871988    0.15722014    0.15667024    0.04860000
opls_140-484    H    0.41954004    0.35400989    0.32673004    0.04860000
opls_140-485    H    0.41441011    0.37280000    0.23428013    0.04860000
opls_140-486    H    0.30482003    0.22103993    0.13042005    0.04860000
opls_140-487    H    0.27904987    0.25737986    0.19852016    0.04860000
opls_140-488    H    0.47266989    0.27463993    0.15544002    0.04860000
opls_140-489    H    0.44424991    0.32786996    0.13487991    0.04860000
opls_140-490    H    0.31338997    0.18140000    0.34857991    0.04860000
opls_140-491    H    0.28597993    0.23536996    0.32873000    0.04860000
opls_144-492    H    0.96422008    0.89696007    0.19604024    0.03150000
opls_144-493    H    0.79767006    0.61960989    0.29899992    0.03150000
opls_146-494    H    0.69545000    0.49590989    0.18465009    0.05330000
opls_146-495    H    0.76263988    0.53772014    0.18497991    0.05340000
opls_146-496    H    0.71052011    0.65653993    0.32087981    0.05330000
opls_146-497    H    0.64317989    0.61530989    0.31886985    0.05340000
opls_146-498    H    0.99688010    0.96370000    0.29148007    0.05340000
opls_146-499    H    0.05961984    0.00455018    0.30329012    0.05330000
opls_146-500    H    0.11701990    0.88970989    0.19113993    0.05340000
opls_146-501    H    0.05436003    0.84897986    0.17936992    0.05340000
opls_140-502    H    0.84477989    0.63663993    0.25153000    0.04860000
opls_140-503    H    0.83771994    0.65603004    0.15993992    0.04860000
opls_140-504    H    0.98056005    0.75080000    0.28430005    0.04860000
opls_140-505    H    0.95548986    0.78857986    0.35145023    0.04860000
opls_140-506    H    0.80385986    0.72132014    0.13255014    0.04860000
opls_140-507    H    0.78096999    0.75822014    0.20281985    0.04860000
opls_140-508    H    0.92165984    0.85262014    0.32493978    0.04860000
opls_140-509    H    0.91664987    0.87390989    0.23335023    0.04860000
opls_140-510    H    0.81472003    0.68300000    0.35142020    0.04860000
opls_140-511    H    0.78723001    0.73699011    0.33085008    0.04860000
opls_140-512    H    0.97371997    0.77307986    0.15371983    0.04860000
opls_140-513    H    0.94537001    0.82604982    0.13259018    0.04860000
opls_144-514    H    0.79145988    0.39743993    0.30895016    0.03150000
opls_144-515    H    0.95726987    0.11393993    0.21387017    0.03150000
opls_146-516    H    0.75046001    0.46280000    0.33237006    0.05260000
opls_146-517    H    0.68854001    0.50543004    0.32006002    0.05340000
opls_146-518    H    0.64528998    0.38880000    0.19862026    0.05260000
opls_146-519    H    0.70721999    0.34610989    0.21092978    0.05340000
opls_146-520    H    0.06025990    0.99484982    0.19504975    0.05340000
opls_146-521    H    0.99521989    0.04110989    0.18933017    0.05260000
opls_146-522    H    0.04782006    0.16447986    0.30652977    0.05340000
opls_146-523    H    0.11237996    0.11766996    0.31381991    0.05260000
opls_140-524    H    0.77719001    0.25156007    0.22209021    0.04860000
opls_140-525    H    0.80078986    0.28924982    0.15355018    0.04860000
opls_140-526    H    0.91114995    0.13475018    0.25899979    0.04860000
opls_140-527    H    0.91660983    0.15722014    0.34985016    0.04860000
opls_140-528    H    0.83578998    0.35400989    0.17978983    0.04860000
opls_140-529    H    0.84091985    0.37280000    0.27223025    0.04860000
opls_140-530    H    0.95050995    0.22103993    0.37608981    0.04860000
opls_140-531    H    0.97627985    0.25737986    0.30800024    0.04860000
opls_140-532    H    0.78265984    0.27463993    0.35107985    0.04860000
opls_140-533    H    0.81109010    0.32786996    0.37163996    0.04860000
opls_140-534    H    0.94194004    0.18140000    0.15793996    0.04860000
opls_140-535    H    0.96935004    0.23536996    0.17777986    0.04860000
opls_140-536    H    0.13161995    0.97357986    0.19340015    0.05330000
opls_702-537    H    0.12801990    0.02642014    0.19323999    0.05330000
opls_144-538    H    0.70889008    0.89696007    0.68951984    0.03150000
opls_144-539    H    0.54233979    0.61960989    0.79249006    0.03150000
opls_146-540    H    0.44011999    0.49590989    0.67813022    0.05330000
opls_146-541    H    0.50730990    0.53772014    0.67847005    0.05340000
opls_146-542    H    0.45518984    0.65653993    0.81436995    0.05340000
opls_146-543    H    0.38784987    0.61530989    0.81234998    0.05340000
opls_146-544    H    0.74154983    0.96370000    0.78497021    0.05340000
opls_146-545    H    0.80428986    0.00455018    0.79678026    0.05330000
opls_146-546    H    0.86168992    0.88970989    0.68463007    0.05340000
opls_146-547    H    0.79903005    0.84897986    0.67286006    0.05340000
opls_140-548    H    0.58944988    0.63663993    0.74501013    0.04860000
opls_140-549    H    0.58237996    0.65603004    0.65343006    0.04860000
opls_140-550    H    0.72522979    0.75080000    0.77779019    0.04860000
opls_140-551    H    0.70015986    0.78857986    0.84492983    0.04860000
opls_140-552    H    0.54852984    0.72132014    0.62603027    0.04860000
opls_140-553    H    0.52563997    0.75822014    0.69629998    0.04860000
opls_140-554    H    0.66632983    0.85262014    0.81841991    0.04860000
opls_140-555    H    0.66130991    0.87390989    0.72683984    0.04860000
opls_140-556    H    0.55939002    0.68300000    0.84489980    0.04860000
opls_140-557    H    0.53190003    0.73699011    0.82434022    0.04860000
opls_140-558    H    0.71838995    0.77307986    0.64719996    0.04860000
opls_140-559    H    0.69004001    0.82604982    0.62606979    0.04860000
opls_144-560    H    0.53612987    0.39743993    0.80243029    0.03150000
opls_144-561    H    0.70193986    0.11393993    0.70734978    0.03150000
opls_146-562    H    0.49512999    0.46280000    0.82585019    0.05260000
opls_146-563    H    0.43321003    0.50543004    0.81355016    0.05340000
opls_146-564    H    0.38996001    0.38880000    0.69210988    0.05260000
opls_146-565    H    0.45188997    0.34610989    0.70440991    0.05340000
opls_146-566    H    0.80492993    0.99484982    0.68853989    0.05340000
opls_146-567    H    0.73988989    0.04110989    0.68280978    0.05260000
opls_146-568    H    0.79249004    0.16447986    0.80000990    0.05340000
opls_146-569    H    0.85704995    0.11766996    0.80730004    0.05260000
opls_140-570    H    0.52186001    0.25156007    0.71556982    0.04860000
opls_140-571    H    0.54545990    0.28924982    0.64703979    0.04860000
opls_140-572    H    0.65581993    0.13475018    0.75247992    0.04860000
opls_140-573    H    0.66127982    0.15722014    0.84333029    0.04860000
opls_140-574    H    0.58045996    0.35400989    0.67326996    0.04860000
opls_140-575    H    0.58558989    0.37280000    0.76571987    0.04860000
opls_140-576    H    0.69517997    0.22103993    0.86957995    0.04860000
opls_140-577    H    0.72094984    0.25737986    0.80147984    0.04860000
opls_140-578    H    0.52732982    0.27463993    0.84455998    0.04860000
opls_140-579    H    0.55574980    0.32786996    0.86512009    0.04860000
opls_140-580    H    0.68661003    0.18140000    0.65142009    0.04860000
opls_140-581    H    0.71402007    0.23536996    0.67127000    0.04860000
opls_144-582    H    0.03577990    0.89696007    0.80396029    0.03150000
opls_144-583    H    0.20232994    0.61960989    0.70100008    0.03150000
opls_146-584    H    0.30455000    0.49590989    0.81534991    0.05330000
opls_146-585    H    0.23735983    0.53772014    0.81502009    0.05340000
opls_146-586    H    0.28947989    0.65653993    0.67912019    0.05330000
opls_146-587    H    0.35681983    0.61530989    0.68113015    0.05340000
opls_146-588    H    0.00311990    0.96370000    0.70851993    0.05340000
opls_146-589    H    0.94037988    0.00455018    0.69670988    0.05330000
opls_146-590    H    0.88297981    0.88970989    0.80886007    0.05340000
opls_146-591    H    0.94563997    0.84897986    0.82063008    0.05340000
opls_140-592    H    0.15521982    0.63663993    0.74847000    0.04860000
opls_140-593    H    0.16227978    0.65603004    0.84006008    0.04860000
opls_140-594    H    0.01943995    0.75080000    0.71569995    0.04860000
opls_140-595    H    0.04450986    0.78857986    0.64854977    0.04860000
opls_140-596    H    0.19613986    0.72132014    0.86744986    0.04860000
opls_140-597    H    0.21903001    0.75822014    0.79718015    0.04860000
opls_140-598    H    0.07833987    0.85262014    0.67506022    0.04860000
opls_140-599    H    0.08334984    0.87390989    0.76664977    0.04860000
opls_140-600    H    0.18527997    0.68300000    0.64857980    0.04860000
opls_140-601    H    0.21276999    0.73699011    0.66914992    0.04860000
opls_140-602    H    0.02628003    0.77307986    0.84628017    0.04860000
opls_140-603    H    0.05462999    0.82604982    0.86740982    0.04860000
opls_144-604    H    0.20853983    0.39743993    0.69104984    0.03150000
opls_144-605    H    0.04272985    0.11393993    0.78612983    0.03150000
opls_146-606    H    0.24953999    0.46280000    0.66762994    0.05260000
opls_146-607    H    0.31145999    0.50543004    0.67993998    0.05340000
opls_146-608    H    0.35471001    0.38880000    0.80138026    0.05260000
opls_146-609    H    0.29278001    0.34610989    0.78907022    0.05340000
opls_146-610    H    0.93973981    0.99484982    0.80495025    0.05340000
opls_146-611    H    0.00477982    0.04110989    0.81066983    0.05260000
opls_146-612    H    0.95217994    0.16447986    0.69347023    0.05340000
opls_146-613    H    0.88762004    0.11766996    0.68618009    0.05260000
opls_140-614    H    0.22280999    0.25156007    0.77790979    0.04860000
opls_140-615    H    0.19920985    0.28924982    0.84644982    0.04860000
opls_140-616    H    0.08885005    0.13475018    0.74100021    0.04860000
opls_140-617    H    0.08338988    0.15722014    0.65014984    0.04860000
opls_140-618    H    0.16421002    0.35400989    0.82021017    0.04860000
opls_140-619    H    0.15907985    0.37280000    0.72777027    0.04860000
opls_140-620    H    0.04949005    0.22103993    0.62391019    0.04860000
opls_140-621    H    0.02371986    0.25737986    0.69200029    0.04860000
opls_140-622    H    0.21733988    0.27463993    0.64892015    0.04860000
opls_140-623    H    0.18890990    0.32786996    0.62836004    0.04860000
opls_140-624    H    0.05805996    0.18140000    0.84206004    0.04860000
opls_140-625    H    0.03064996    0.23536996    0.82222014    0.04860000
opls_140-626    H    0.86838005    0.97357986    0.80659985    0.05330000
opls_702-627    H    0.87197982    0.02642014    0.80676001    0.05330000
