#======================================================================
# Crystal Data Generated By AuToFF
#----------------------------------------------------------------------

data_AuToFF_phase_1

_cell_length_a                         50.3000
_cell_length_b                         50.3000
_cell_length_c                         3.9000
_cell_angle_alpha                      90.00
_cell_angle_beta                       90.00
_cell_angle_gamma                      90.00
_symmetry_space_group_name_H-M_alt     'P 1'
_symmetry_space_group_IT_number        1

loop_
_space_group_symop_operation_xyz
   'x, y, z'

loop_
   _atom_site_label
   _atom_site_type_symbol
   _atom_site_fract_x
   _atom_site_fract_y
   _atom_site_fract_z
   _atom_site_charge
opls_716-0    C    0.47292008    0.64103002    0.25451026    -0.17310000
opls_716-1    C    0.45355010    0.66039006    0.25414872    -0.18210000
opls_543-2    C    0.46112008    0.61667992    0.37062051    0.18320000
opls_543-3    C    0.42919006    0.64860000    0.37005128    0.17850000
opls_507-4    C    0.46053996    0.56782008    0.49892051    0.20690000
opls_716-5    C    0.47319006    0.54320994    0.61362051    -0.16060000
opls_716-6    C    0.45407992    0.52409006    0.61264103    -0.16060000
opls_507-7    C    0.42949006    0.53676004    0.49758974    0.20710000
opls_543-8    C    0.38063996    0.53619006    0.36795128    0.18320000
opls_716-9    C    0.35632008    0.52440000    0.25096923    -0.17730000
opls_716-10    C    0.33695010    0.54376998    0.25055897    -0.17310000
opls_543-11    C    0.34872008    0.56810994    0.36727949    0.17380000
opls_507-12    C    0.34924990    0.61696998    0.49592051    0.20690000
opls_716-13    C    0.33654990    0.64157992    0.61007949    -0.16270000
opls_716-14    C    0.35567992    0.66069006    0.61107949    -0.16320000
opls_507-15    C    0.38030994    0.64803002    0.49731026    0.20420000
opls_700-16    C    0.33556004    0.59272008    0.43141026    -0.05960000
opls_700-17    C    0.40524990    0.52305010    0.43278974    -0.05550000
opls_700-18    C    0.47425010    0.59206998    0.43523077    -0.05970000
opls_700-19    C    0.40456004    0.66173996    0.43394872    -0.05970000
opls_700-20    C    0.50382008    0.59206004    0.43423077    0.07360000
opls_145-21    C    0.51830000    0.57143002    0.27227949    -0.12290000
opls_145-22    C    0.51839006    0.61265010    0.59585128    -0.12290000
opls_145-23    C    0.54596998    0.57140000    0.27558974    -0.05060000
opls_145-24    C    0.54606004    0.61254990    0.59203077    -0.05080000
opls_145-25    C    0.56014990    0.59196004    0.43374103    -0.23170000
opls_166-26    C    0.63173996    0.57964990    0.35672051    0.18930000
opls_166-27    C    0.63159006    0.60479006    0.51686923    0.19140000
opls_145-28    C    0.65506998    0.56595010    0.26941026    -0.28130000
opls_145-29    C    0.65475010    0.61870000    0.60613077    -0.28130000
opls_166-30    C    0.67823002    0.57986004    0.35862051    0.18930000
opls_166-31    C    0.67806998    0.60500994    0.51878974    0.18880000
opls_145-32    C    0.74966998    0.59275010    0.44007949    -0.23160000
opls_145-33    C    0.76373002    0.57219006    0.28072051    -0.05070000
opls_145-34    C    0.76386004    0.61330000    0.59800000    -0.05040000
opls_145-35    C    0.79140000    0.57213002    0.27558974    -0.12290000
opls_145-36    C    0.79153002    0.61330000    0.60005128    -0.12290000
opls_700-37    C    0.80599006    0.59270994    0.43707949    0.07370000
opls_700-38    C    0.40526004    0.49347992    0.43107949    0.07370000
opls_145-39    C    0.38466998    0.47887992    0.59214872    -0.12290000
opls_145-40    C    0.42590000    0.47903002    0.26896923    -0.12290000
opls_145-41    C    0.38476998    0.45120994    0.58758974    -0.05070000
opls_145-42    C    0.42593002    0.45135010    0.27141026    -0.04990000
opls_145-43    C    0.40536998    0.43715010    0.42903077    -0.23160000
opls_166-44    C    0.39252008    0.36570994    0.51096923    0.18610000
opls_166-45    C    0.41763996    0.36556004    0.35035897    0.18960000
opls_145-46    C    0.37860994    0.34253996    0.60033077    -0.28130000
opls_145-47    C    0.43133002    0.34223996    0.26266923    -0.28130000
opls_166-48    C    0.39230000    0.31922008    0.51264103    0.18870000
opls_166-49    C    0.41743002    0.31907992    0.35200000    0.18610000
opls_145-50    C    0.40457992    0.24763002    0.43444103    -0.23170000
opls_145-51    C    0.38403996    0.23346998    0.59290000    -0.05060000
opls_145-52    C    0.42513996    0.23353996    0.27535897    -0.05040000
opls_145-53    C    0.38403996    0.20579006    0.59582051    -0.12290000
opls_145-54    C    0.42519006    0.20586998    0.27104872    -0.12680000
opls_700-55    C    0.40462008    0.19130000    0.43305128    0.07380000
opls_700-56    C    0.30599006    0.59270000    0.42921026    0.07380000
opls_145-57    C    0.29153002    0.61330000    0.26644103    -0.12290000
opls_145-58    C    0.29140000    0.57212008    0.59048974    -0.12290000
opls_145-59    C    0.26386004    0.61330994    0.26851026    -0.05060000
opls_145-60    C    0.26373002    0.57217992    0.58544103    -0.05080000
opls_145-61    C    0.24966004    0.59275010    0.42625897    -0.23170000
opls_166-62    C    0.17806998    0.60502008    0.34764103    0.19140000
opls_166-63    C    0.17822008    0.57986998    0.50778974    0.18330000
opls_145-64    C    0.15473996    0.61870994    0.26035897    -0.28130000
opls_145-65    C    0.15506004    0.56596004    0.59696923    -0.28050000
opls_166-66    C    0.13159006    0.60480000    0.34958974    0.18880000
opls_166-67    C    0.13173996    0.57966004    0.50968974    0.18960000
opls_145-68    C    0.06015010    0.59196004    0.43262051    -0.23160000
opls_145-69    C    0.04606004    0.61256004    0.27445897    -0.05040000
opls_145-70    C    0.04596998    0.57140000    0.59055897    -0.05060000
opls_145-71    C    0.01839006    0.61266004    0.27064103    -0.12290000
opls_145-72    C    0.01830000    0.57143002    0.59382051    -0.12290000
opls_700-73    C    0.00382008    0.59206004    0.43205128    0.07370000
opls_700-74    C    0.40456998    0.69130000    0.43251026    0.07370000
opls_145-75    C    0.42513002    0.70587992    0.59454103    -0.12290000
opls_145-76    C    0.38396998    0.70577992    0.26974103    -0.12290000
opls_145-77    C    0.42505010    0.73355010    0.59025897    -0.05080000
opls_145-78    C    0.38394990    0.73345010    0.27272051    -0.05070000
opls_145-79    C    0.40447992    0.74763002    0.43123077    -0.23160000
opls_166-80    C    0.41730994    0.81906998    0.51444103    0.18610000
opls_166-81    C    0.39217992    0.81922008    0.35382051    0.19140000
opls_145-82    C    0.43120994    0.84223002    0.60396923    -0.28130000
opls_145-83    C    0.37849006    0.84255010    0.26637949    -0.28130000
opls_166-84    C    0.41752008    0.86556004    0.51648974    0.19140000
opls_166-85    C    0.39239006    0.86570994    0.35592051    0.18870000
opls_145-86    C    0.40526004    0.93714990    0.43813077    -0.23160000
opls_145-87    C    0.42583002    0.95133002    0.59568974    -0.05070000
opls_145-88    C    0.38466998    0.95122008    0.27951026    -0.05040000
opls_145-89    C    0.42582008    0.97900994    0.59804872    -0.12290000
opls_145-90    C    0.38459006    0.97889006    0.27486923    -0.12290000
opls_700-91    C    0.40519006    0.99347992    0.43590000    0.07360000
opls_700-92    C    0.83556004    0.59273002    0.43482051    -0.05960000
opls_507-93    C    0.84925010    0.61697992    0.37066923    0.20270000
opls_543-94    C    0.84872008    0.56810994    0.49862051    0.17380000
opls_716-95    C    0.83655010    0.64160000    0.25686923    -0.16320000
opls_716-96    C    0.83694990    0.54376004    0.61500000    -0.17730000
opls_716-97    C    0.85566998    0.66072008    0.25631026    -0.16270000
opls_507-98    C    0.88030000    0.64803996    0.36992051    0.20690000
opls_716-99    C    0.85630994    0.52439006    0.61421026    -0.17310000
opls_543-100    C    0.88063996    0.53619006    0.49735897    0.17380000
opls_700-101    C    0.90456004    0.66173996    0.43345897    -0.05550000
opls_700-102    C    0.90525010    0.52305010    0.43233077    -0.05960000
opls_543-103    C    0.92919006    0.64859006    0.49717949    0.18320000
opls_507-104    C    0.92947992    0.53676004    0.36774103    0.20690000
opls_716-105    C    0.95353996    0.66037992    0.61325897    -0.17310000
opls_716-106    C    0.95407992    0.52410000    0.25255897    -0.16060000
opls_716-107    C    0.97292008    0.64102008    0.61248974    -0.18210000
opls_543-108    C    0.96110994    0.61667992    0.49600000    0.17850000
opls_716-109    C    0.97319006    0.54322008    0.25200000    -0.16320000
opls_507-110    C    0.96053002    0.56783002    0.36700000    0.20690000
opls_700-111    C    0.97425010    0.59206998    0.43105128    -0.05960000
opls_700-112    C    0.40460000    0.16173996    0.43168974    -0.05970000
opls_543-113    C    0.42922008    0.14857992    0.49564103    0.17380000
opls_507-114    C    0.38033996    0.14803996    0.36844103    0.20690000
opls_716-115    C    0.45357992    0.16036998    0.61151026    -0.17310000
opls_716-116    C    0.35570994    0.16072008    0.25464103    -0.16320000
opls_716-117    C    0.47293996    0.14100000    0.61135897    -0.17310000
opls_543-118    C    0.46113002    0.11664990    0.49533077    0.17380000
opls_716-119    C    0.33657992    0.14160994    0.25585128    -0.16270000
opls_507-120    C    0.34926004    0.11700000    0.37013077    0.20270000
opls_700-121    C    0.47425010    0.09203002    0.43092051    -0.05960000
opls_700-122    C    0.33556004    0.09276004    0.43478974    -0.05960000
opls_507-123    C    0.46052008    0.06777992    0.36741026    0.20050000
opls_543-124    C    0.34870994    0.06814990    0.49910000    0.17850000
opls_716-125    C    0.47316004    0.04316004    0.25290000    -0.16060000
opls_716-126    C    0.33692008    0.04380994    0.61600000    -0.17910000
opls_716-127    C    0.45403996    0.02403996    0.25413077    -0.16270000
opls_507-128    C    0.42944990    0.03673002    0.36910000    0.20270000
opls_716-129    C    0.35627992    0.02443996    0.61578974    -0.17310000
opls_543-130    C    0.38060994    0.03620994    0.49876923    0.18320000
opls_700-131    C    0.40520994    0.02305010    0.43400000    -0.05970000
opls_700-132    C    0.90526004    0.49347992    0.43368974    0.07370000
opls_145-133    C    0.88466998    0.47889006    0.27241026    -0.12290000
opls_145-134    C    0.92590000    0.47902008    0.59562051    -0.12290000
opls_145-135    C    0.88477992    0.45122008    0.27654103    -0.05080000
opls_145-136    C    0.92593996    0.45133996    0.59272051    -0.05060000
opls_145-137    C    0.90537992    0.43715010    0.43486923    -0.23160000
opls_166-138    C    0.89252008    0.36572008    0.35204872    0.18870000
opls_166-139    C    0.91765010    0.36556004    0.51264103    0.19140000
opls_145-140    C    0.87862008    0.34256004    0.26258974    -0.28130000
opls_145-141    C    0.93133002    0.34222008    0.60021026    -0.28130000
opls_166-142    C    0.89230000    0.31923002    0.35015128    0.18870000
opls_166-143    C    0.91742008    0.31906998    0.51076923    0.18870000
opls_145-144    C    0.90453996    0.24763002    0.42868974    -0.23170000
opls_145-145    C    0.88399006    0.23345010    0.27048974    -0.05060000
opls_145-146    C    0.92509006    0.23354990    0.58800000    -0.05080000
opls_145-147    C    0.88399006    0.20577992    0.26807949    -0.12280000
opls_145-148    C    0.92514990    0.20589006    0.59284872    -0.12290000
opls_700-149    C    0.90457992    0.19130994    0.43105128    0.07370000
opls_700-150    C    0.90457992    0.69130994    0.43533077    0.07370000
opls_145-151    C    0.88399006    0.70577992    0.59831026    -0.12280000
opls_145-152    C    0.92514990    0.70589006    0.27354103    -0.12290000
opls_145-153    C    0.88399006    0.73345010    0.59590000    -0.05060000
opls_145-154    C    0.92509006    0.73356004    0.27837949    -0.05070000
opls_145-155    C    0.90453996    0.74763002    0.43768974    -0.23170000
opls_166-156    C    0.89229006    0.81923002    0.51623077    0.19140000
opls_166-157    C    0.91742008    0.81906998    0.35564103    0.18330000
opls_145-158    C    0.87860994    0.84256004    0.60382051    -0.28130000
opls_145-159    C    0.93133002    0.84223002    0.26621026    -0.28130000
opls_166-160    C    0.89252008    0.86572008    0.51435897    0.18930000
opls_166-161    C    0.91765010    0.86556004    0.35376923    0.18930000
opls_145-162    C    0.90536998    0.93714990    0.43154103    -0.23160000
opls_145-163    C    0.88476998    0.95122008    0.58986923    -0.05080000
opls_145-164    C    0.92593002    0.95133996    0.27368974    -0.05060000
opls_145-165    C    0.88466004    0.97889006    0.59396923    -0.12290000
opls_145-166    C    0.92589006    0.97902008    0.27078974    -0.12290000
opls_700-167    C    0.90525010    0.99347992    0.43272051    0.07370000
opls_700-168    C    0.90456004    0.16173996    0.43290000    -0.05550000
opls_507-169    C    0.88030000    0.14803996    0.49645897    0.20270000
opls_543-170    C    0.92919006    0.14859006    0.36921026    0.18320000
opls_716-171    C    0.85566998    0.16072008    0.61007949    -0.16270000
opls_716-172    C    0.95353996    0.16037992    0.25314872    -0.17470000
opls_716-173    C    0.83655010    0.14160000    0.60951026    -0.16060000
opls_507-174    C    0.84923996    0.11699006    0.49568974    0.20270000
opls_716-175    C    0.97290994    0.14102008    0.25394872    -0.18210000
opls_543-176    C    0.96110994    0.11667992    0.37041026    0.17850000
opls_700-177    C    0.83556004    0.09273002    0.43155897    -0.05960000
opls_700-178    C    0.97425010    0.09206998    0.43535897    -0.05960000
opls_543-179    C    0.84872008    0.06810994    0.36778974    0.17390000
opls_507-180    C    0.96053002    0.06783002    0.49937949    0.20040000
opls_716-181    C    0.83693996    0.04376004    0.25137949    -0.17310000
opls_716-182    C    0.97317992    0.04322008    0.61441026    -0.16320000
opls_716-183    C    0.85630000    0.02439006    0.25221026    -0.17310000
opls_543-184    C    0.88063002    0.03619006    0.36903077    0.17850000
opls_716-185    C    0.95406998    0.02410000    0.61385128    -0.16060000
opls_507-186    C    0.92947992    0.03676004    0.49866923    0.20690000
opls_700-187    C    0.90523996    0.02305010    0.43407949    -0.05550000
opls_700-188    C    0.50382008    0.09200994    0.43192051    0.07380000
opls_145-189    C    0.51829006    0.07137992    0.59396923    -0.12290000
opls_145-190    C    0.51840000    0.11257992    0.27023077    -0.12290000
opls_145-191    C    0.54596004    0.07133996    0.59074103    -0.05060000
opls_145-192    C    0.54606004    0.11247992    0.27415128    -0.04950000
opls_145-193    C    0.56013996    0.09189006    0.43255897    -0.23170000
opls_166-194    C    0.63173996    0.07960994    0.50968974    0.19150000
opls_166-195    C    0.63157992    0.10475010    0.34951026    0.18870000
opls_145-196    C    0.65506998    0.06592008    0.59700000    -0.28130000
opls_145-197    C    0.65473002    0.11866998    0.26027949    -0.28120000
opls_166-198    C    0.67823002    0.07983996    0.50782051    0.18870000
opls_166-199    C    0.67806004    0.10497992    0.34762051    0.19140000
opls_145-200    C    0.74966004    0.09276004    0.42631026    -0.23160000
opls_145-201    C    0.76373002    0.07220000    0.58566923    -0.05080000
opls_145-202    C    0.76385010    0.11330994    0.26841026    -0.05060000
opls_145-203    C    0.79139006    0.07213002    0.59082051    -0.12280000
opls_145-204    C    0.79153002    0.11330000    0.26633077    -0.12290000
opls_700-205    C    0.80599006    0.09270994    0.42933077    0.07360000
opls_700-206    C    0.30599006    0.09276004    0.43705128    0.07360000
opls_145-207    C    0.29137992    0.07216998    0.27584872    -0.12290000
opls_145-208    C    0.29153996    0.11336998    0.59974103    -0.12290000
opls_145-209    C    0.26372008    0.07224990    0.28100000    -0.04950000
opls_145-210    C    0.26386004    0.11337992    0.59776923    -0.05060000
opls_145-211    C    0.24966004    0.09282008    0.44013077    -0.23160000
opls_166-212    C    0.17823002    0.07990994    0.35868974    0.18930000
opls_166-213    C    0.17806004    0.10506004    0.51882051    0.18610000
opls_145-214    C    0.15506998    0.06599006    0.26951026    -0.28120000
opls_145-215    C    0.15473002    0.11874990    0.60610000    -0.28040000
opls_166-216    C    0.13173996    0.07967992    0.35678974    0.18610000
opls_166-217    C    0.13157992    0.10483002    0.51690000    0.18930000
opls_145-218    C    0.06013996    0.09196004    0.43382051    -0.23160000
opls_145-219    C    0.04596998    0.07140000    0.27586923    -0.05040000
opls_145-220    C    0.04606004    0.11256004    0.59195128    -0.05070000
opls_145-221    C    0.01830000    0.07142008    0.27262051    -0.12290000
opls_145-222    C    0.01839006    0.11264990    0.59578974    -0.12290000
opls_700-223    C    0.00382008    0.09206004    0.43435897    0.07380000
opls_542-224    N    0.43460994    0.62210000    0.42541026    -0.24900000
opls_542-225    N    0.43399006    0.56332008    0.44466923    -0.37290000
opls_542-226    N    0.37522008    0.56269006    0.42315128    -0.24540000
opls_542-227    N    0.37580994    0.62147992    0.44351026    -0.38040000
opls_542-228    N    0.87580994    0.62147992    0.42323077    -0.38040000
opls_542-229    N    0.87520994    0.56269006    0.44258974    -0.24900000
opls_542-230    N    0.93460000    0.62210000    0.44135897    -0.24170000
opls_542-231    N    0.93399006    0.56332008    0.42110000    -0.38040000
opls_542-232    N    0.43462008    0.12207992    0.44045897    -0.24130000
opls_542-233    N    0.37583002    0.12149006    0.42241026    -0.37280000
opls_542-234    N    0.43396998    0.06329006    0.42176923    -0.37290000
opls_542-235    N    0.37520000    0.06270994    0.44331026    -0.24120000
opls_542-236    N    0.87580994    0.12149006    0.44313077    -0.38040000
opls_542-237    N    0.93460000    0.12210000    0.42500000    -0.24170000
opls_542-238    N    0.87520994    0.06270000    0.42382051    -0.24130000
opls_542-239    N    0.93397992    0.06332008    0.44531026    -0.36670000
opls_547-240    H    0.31636004    0.54083002    0.16851026    0.12340000
opls_547-241    H    0.35340000    0.50380000    0.16931026    0.11750000
opls_547-242    H    0.45694990    0.50340000    0.69272051    0.08010000
opls_547-243    H    0.49385010    0.54033996    0.69490000    0.09780000
opls_547-244    H    0.49353002    0.64396998    0.17333077    0.12330000
opls_547-245    H    0.45647992    0.68100000    0.17266923    0.11560000
opls_547-246    H    0.35279006    0.68136004    0.69174103    0.07820000
opls_547-247    H    0.31584990    0.64446004    0.68948974    0.07820000
opls_146-248    H    0.50779006    0.55555010    0.13427949    0.07760000
opls_146-249    H    0.50800000    0.62857992    0.73437949    0.07760000
opls_146-250    H    0.55783996    0.55584990    0.15017949    0.07200000
opls_146-251    H    0.55806998    0.62800994    0.71705128    0.06970000
opls_146-252    H    0.65519006    0.54646998    0.14333077    0.10070000
opls_146-253    H    0.65462008    0.63819006    0.73210000    0.09440000
opls_146-254    H    0.75170000    0.55675010    0.15590000    0.07000000
opls_146-255    H    0.75202008    0.62883002    0.72423077    0.07770000
opls_146-256    H    0.80176998    0.55623002    0.13605128    0.06710000
opls_146-257    H    0.80206004    0.62917992    0.73786923    0.06970000
opls_146-258    H    0.36872008    0.48925010    0.73078974    0.11510000
opls_146-259    H    0.44179006    0.48956004    0.13148974    0.07560000
opls_146-260    H    0.36930994    0.43917992    0.71217949    0.07560000
opls_146-261    H    0.44149006    0.43950994    0.14574103    0.07200000
opls_146-262    H    0.35915010    0.34266004    0.72676923    0.09780000
opls_146-263    H    0.45080000    0.34212008    0.13625897    0.09140000
opls_146-264    H    0.36852008    0.24533996    0.71892051    0.06970000
opls_146-265    H    0.44059006    0.24553996    0.15005128    0.07760000
opls_146-266    H    0.36816998    0.19529006    0.73413077    0.07760000
opls_146-267    H    0.44109006    0.19546998    0.13172051    0.07140000
opls_146-268    H    0.30206004    0.62919006    0.12878974    0.07200000
opls_146-269    H    0.30176998    0.55620000    0.72978974    0.07140000
opls_146-270    H    0.25200994    0.62883996    0.14241026    0.06970000
opls_146-271    H    0.25170000    0.55673002    0.71013077    0.06570000
opls_146-272    H    0.15462008    0.63820000    0.13441026    0.09210000
opls_146-273    H    0.15519006    0.54647992    0.72300000    0.09350000
opls_146-274    H    0.05806998    0.62803002    0.14955897    0.06710000
opls_146-275    H    0.05783996    0.55583996    0.71586923    0.06710000
opls_146-276    H    0.00799006    0.62860000    0.13227949    0.07010000
opls_146-277    H    0.00779006    0.55553002    0.73162051    0.11510000
opls_146-278    H    0.44103002    0.69549006    0.73384872    0.11510000
opls_146-279    H    0.36810994    0.69526004    0.13141026    0.06970000
opls_146-280    H    0.44047992    0.74556998    0.71558974    0.07560000
opls_146-281    H    0.36842008    0.74530994    0.14668974    0.07010000
opls_146-282    H    0.45067992    0.84210994    0.73035897    0.09140000
opls_146-283    H    0.35902008    0.84266998    0.13994872    0.09210000
opls_146-284    H    0.44137992    0.93949006    0.72137949    0.06550000
opls_146-285    H    0.36920000    0.93919006    0.15494872    0.07020000
opls_146-286    H    0.44172008    0.98953002    0.73548974    0.07560000
opls_146-287    H    0.36865010    0.98926998    0.13617949    0.11510000
opls_547-288    H    0.81586004    0.64449006    0.17735897    0.06350000
opls_547-289    H    0.81636004    0.54082008    0.69715128    0.11230000
opls_547-290    H    0.85277992    0.68140000    0.17607949    0.07820000
opls_547-291    H    0.85339006    0.50377992    0.69548974    0.12330000
opls_547-292    H    0.95647992    0.68096998    0.69517949    0.11760000
opls_547-293    H    0.95695010    0.50343002    0.17207949    0.06350000
opls_547-294    H    0.99353002    0.64394990    0.69358974    0.11820000
opls_547-295    H    0.99384990    0.54036004    0.17084872    0.07360000
opls_547-296    H    0.45653002    0.18097992    0.69290000    0.11570000
opls_547-297    H    0.35283002    0.18137992    0.17385128    0.06230000
opls_547-298    H    0.49355010    0.14392008    0.69258974    0.11750000
opls_547-299    H    0.31587992    0.14450994    0.17654103    0.07820000
opls_547-300    H    0.49380994    0.04027992    0.17155897    0.06710000
opls_547-301    H    0.31632008    0.04090000    0.69800000    0.11080000
opls_547-302    H    0.45690000    0.00334990    0.17427949    0.07350000
opls_547-303    H    0.35333996    0.00383996    0.69768974    0.11560000
opls_146-304    H    0.86872008    0.48926998    0.13395128    0.06710000
opls_146-305    H    0.94179006    0.48953996    0.73327949    0.07760000
opls_146-306    H    0.86932008    0.43919006    0.15178974    0.07200000
opls_146-307    H    0.94150000    0.43950000    0.71823077    0.07560000
opls_146-308    H    0.85915010    0.34269006    0.13617949    0.09140000
opls_146-309    H    0.95080000    0.34210000    0.72664103    0.09210000
opls_146-310    H    0.86846998    0.24530994    0.14423077    0.06710000
opls_146-311    H    0.94053996    0.24557992    0.71310000    0.11510000
opls_146-312    H    0.86813002    0.19526004    0.13000000    0.06570000
opls_146-313    H    0.94103996    0.19550000    0.73237949    0.11510000
opls_146-314    H    0.86813002    0.69526004    0.73637949    0.07000000
opls_146-315    H    0.94103996    0.69550994    0.13403077    0.07200000
opls_146-316    H    0.86846998    0.74530994    0.72213077    0.07010000
opls_146-317    H    0.94053002    0.74557992    0.15327949    0.06550000
opls_146-318    H    0.85913996    0.84267992    0.73021026    0.09140000
opls_146-319    H    0.95080000    0.84210000    0.13978974    0.09220000
opls_146-320    H    0.86930994    0.93919006    0.71462051    0.07010000
opls_146-321    H    0.94149006    0.93950000    0.14817949    0.07560000
opls_146-322    H    0.86870994    0.98926998    0.73244103    0.11510000
opls_146-323    H    0.94177992    0.98953996    0.13313077    0.07760000
opls_547-324    H    0.85279006    0.18140000    0.69031026    0.07820000
opls_547-325    H    0.95647992    0.18096998    0.17123077    0.11750000
opls_547-326    H    0.81586004    0.14449006    0.68903077    0.06350000
opls_547-327    H    0.99353002    0.14395010    0.17285128    0.11560000
opls_547-328    H    0.81634990    0.04083002    0.16925897    0.12330000
opls_547-329    H    0.99383996    0.04036004    0.69555897    0.07350000
opls_547-330    H    0.85337992    0.00377992    0.17092051    0.12330000
opls_547-331    H    0.95693996    0.00343002    0.69433077    0.06350000
opls_146-332    H    0.50776998    0.05550000    0.73203077    0.11510000
opls_146-333    H    0.50800994    0.12852008    0.13158974    0.07140000
opls_146-334    H    0.55780994    0.05577992    0.71627949    0.07200000
opls_146-335    H    0.55807992    0.12793002    0.14913077    0.07760000
opls_146-336    H    0.65520000    0.04643996    0.72310000    0.09140000
opls_146-337    H    0.65460000    0.13816004    0.13427949    0.09440000
opls_146-338    H    0.75169006    0.05675010    0.71048974    0.07010000
opls_146-339    H    0.75200994    0.12883996    0.14215128    0.06970000
opls_146-340    H    0.80176998    0.05623002    0.73035897    0.07140000
opls_146-341    H    0.80206004    0.12917992    0.12854103    0.06970000
opls_146-342    H    0.30174990    0.05625010    0.13658974    0.07900000
opls_146-343    H    0.30206998    0.12924990    0.73725897    0.06990000
opls_146-344    H    0.25167992    0.05680000    0.15637949    0.07560000
opls_146-345    H    0.25203002    0.12892008    0.72386923    0.07560000
opls_146-346    H    0.15520000    0.04650994    0.14348974    0.09350000
opls_146-347    H    0.15460000    0.13823002    0.73205128    0.08010000
opls_146-348    H    0.05783002    0.05583996    0.15055897    0.06970000
opls_146-349    H    0.05806998    0.12802008    0.71682051    0.07560000
opls_146-350    H    0.00779006    0.05553002    0.13482051    0.07760000
opls_146-351    H    0.00799006    0.12860000    0.73413077    0.07140000
opls_545-352    H    0.42089006    0.60837992    0.51294872    0.28790000
opls_545-353    H    0.38892008    0.57640994    0.51133077    0.28790000
opls_545-354    H    0.92087992    0.60839006    0.35362051    0.28790000
opls_545-355    H    0.88892008    0.57642008    0.35458974    0.30130000
opls_545-356    H    0.42089006    0.10836998    0.35296923    0.28790000
opls_545-357    H    0.38890994    0.07640994    0.35505128    0.28790000
opls_545-358    H    0.92087992    0.10839006    0.51274103    0.28790000
opls_545-359    H    0.88890994    0.07642008    0.51182051    0.28800000
MOF2_B_2-360    B    0.58986998    0.59203996    0.43478974    0.61530000
MOF2_B_2-361    B    0.71993996    0.59263996    0.44003077    0.61530000
MOF2_B_2-362    B    0.40526998    0.40743002    0.42935897    0.61530000
MOF2_B_2-363    B    0.40467992    0.27736004    0.43385128    0.61530000
MOF2_B_2-364    B    0.21993996    0.59263996    0.42637949    0.61530000
MOF2_B_2-365    B    0.08986998    0.59204990    0.43158974    0.61530000
MOF2_B_2-366    B    0.40456998    0.77734990    0.43213077    0.61550000
MOF2_B_2-367    B    0.40515010    0.90742008    0.43776923    0.61540000
MOF2_B_2-368    B    0.90529006    0.40743002    0.43410000    0.61540000
MOF2_B_2-369    B    0.90464990    0.27736004    0.42900000    0.61540000
MOF2_B_2-370    B    0.90464990    0.77736004    0.43737949    0.61530000
MOF2_B_2-371    B    0.90527992    0.90743002    0.43231026    0.61530000
MOF2_B_2-372    B    0.58986998    0.09197992    0.43155897    0.61530000
MOF2_B_2-373    B    0.71993996    0.09263002    0.42641026    0.61540000
MOF2_B_2-374    B    0.21993996    0.09270000    0.44004872    0.61530000
MOF2_B_2-375    B    0.08986998    0.09204990    0.43486923    0.61530000
opls_167-376    O    0.60563002    0.57160994    0.30413077    -0.31010000
opls_167-377    O    0.60537992    0.61260994    0.56696923    -0.30990000
opls_167-378    O    0.70443002    0.57206004    0.30813077    -0.30210000
opls_167-379    O    0.70417992    0.61306004    0.57104872    -0.31010000
opls_167-380    O    0.38470994    0.39190994    0.56158974    -0.31010000
opls_167-381    O    0.42569006    0.39166998    0.29803077    -0.30990000
opls_167-382    O    0.38426998    0.29310994    0.56510000    -0.31730000
opls_167-383    O    0.42523996    0.29286998    0.30145897    -0.30980000
opls_167-384    O    0.20417992    0.61306998    0.29541026    -0.31270000
opls_167-385    O    0.20443002    0.57206004    0.55823077    -0.31270000
opls_167-386    O    0.10537992    0.61262008    0.29948974    -0.31270000
opls_167-387    O    0.10563002    0.57160994    0.56223077    -0.31270000
opls_167-388    O    0.42512008    0.79286004    0.56464103    -0.31010000
opls_167-389    O    0.38415010    0.79310994    0.30107949    -0.31010000
opls_167-390    O    0.42556004    0.89166998    0.56900000    -0.31730000
opls_167-391    O    0.38459006    0.89190994    0.30548974    -0.31720000
opls_167-392    O    0.88472008    0.39192008    0.30168974    -0.31270000
opls_167-393    O    0.92570000    0.39166004    0.56523077    -0.30220000
opls_167-394    O    0.88425010    0.29312008    0.29768974    -0.30220000
opls_167-395    O    0.92522008    0.29286004    0.56131026    -0.31250000
opls_167-396    O    0.88423996    0.79312008    0.56866923    -0.31270000
opls_167-397    O    0.92522008    0.79286004    0.30510000    -0.31270000
opls_167-398    O    0.88472008    0.89192008    0.56472051    -0.30220000
opls_167-399    O    0.92569006    0.89166998    0.30121026    -0.30210000
opls_167-400    O    0.60563002    0.07155010    0.56225897    -0.31270000
opls_167-401    O    0.60536998    0.11255010    0.29937949    -0.30220000
opls_167-402    O    0.70443002    0.07205010    0.55827949    -0.31730000
opls_167-403    O    0.70416998    0.11305010    0.29535897    -0.30980000
opls_167-404    O    0.20443002    0.07212008    0.30823077    -0.31730000
opls_167-405    O    0.20416998    0.11312008    0.57103077    -0.31270000
opls_167-406    O    0.10563002    0.07163002    0.30423077    -0.31730000
opls_167-407    O    0.10536998    0.11263002    0.56700000    -0.31270000
