#======================================================================
# Crystal Data Generated By AuToFF
#----------------------------------------------------------------------

data_AuToFF_phase_1

_cell_length_a                         51.8172
_cell_length_b                         51.8172
_cell_length_c                         8.1195
_cell_angle_alpha                      90.00
_cell_angle_beta                       90.00
_cell_angle_gamma                      120.00
_symmetry_space_group_name_H-M_alt     'P 1'
_symmetry_space_group_IT_number        1

loop_
_space_group_symop_operation_xyz
   'x, y, z'

loop_
   _atom_site_label
   _atom_site_type_symbol
   _atom_site_fract_x
   _atom_site_fract_y
   _atom_site_fract_z
   _atom_site_charge
opls_523-0    C    0.69139003    0.60992009    0.78316029    -0.12370000
opls_145-1    C    0.69195003    0.58336009    0.78637970    -0.17360000
opls_145-2    C    0.66572006    0.55581002    0.75748014    0.20300000
opls_145-3    C    0.63906994    0.55594996    0.72038057    -0.17890000
opls_523-4    C    0.63874992    0.58269001    0.71715007    -0.12050000
opls_700-5    C    0.66479014    0.61017011    0.74883059    -0.00330000
opls_142-6    C    0.64683994    0.50354997    0.79448981    0.09920000
opls_145-7    C    0.67852987    0.48008992    0.74527988    -0.12240000
opls_145-8    C    0.68123007    0.45562998    0.69958988    -0.12270000
opls_700-9    C    0.65572002    0.42742007    0.67556007    0.06700000
opls_145-10    C    0.62768994    0.42381004    0.71667960    -0.12320000
opls_145-11    C    0.62503000    0.44821004    0.76575035    -0.12760000
opls_700-12    C    0.65022994    0.47708001    0.77221011    0.06310000
opls_700-13    C    0.66341997    0.35892003    0.58677012    0.06750000
opls_700-14    C    0.65826997    0.40298999    0.58766057    0.02960000
opls_145-15    C    0.10003000    0.97304001    0.80091015    -0.12070000
opls_145-16    C    0.12641004    0.97302998    0.76527003    -0.12270000
opls_145-17    C    0.22672992    0.97284992    0.78561980    -0.16990000
opls_523-18    C    0.25356995    0.97300992    0.76875054    -0.12360000
opls_145-19    C    0.27998987    0.61921992    0.67398978    -0.16510000
opls_531-20    C    0.63870997    0.66450994    0.74684032    0.35980000
opls_523-21    C    0.39008004    0.08147007    0.78316029    -0.12370000
opls_145-22    C    0.41663997    0.10859006    0.78637970    -0.17360000
opls_145-23    C    0.44419002    0.10990995    0.75748014    0.20300000
opls_145-24    C    0.44404990    0.08311998    0.72038057    -0.17890000
opls_523-25    C    0.41730997    0.05605993    0.71715007    -0.12050000
opls_700-26    C    0.38982994    0.05461993    0.74883059    -0.00330000
opls_142-27    C    0.49645008    0.14329000    0.79448981    0.09920000
opls_145-28    C    0.51991007    0.19844007    0.74527988    -0.12300000
opls_145-29    C    0.54436999    0.22559995    0.69958988    -0.12270000
opls_700-30    C    0.57258008    0.22830012    0.67556007    0.06700000
opls_145-31    C    0.57619009    0.20388007    0.71667960    -0.12320000
opls_145-32    C    0.55178993    0.17682002    0.76575035    -0.12780000
opls_700-33    C    0.52292010    0.17315004    0.77221011    0.06310000
opls_700-34    C    0.64107996    0.30449999    0.58677012    0.06760000
opls_700-35    C    0.59700999    0.25527994    0.58766057    0.02970000
opls_145-36    C    0.02696005    0.12699006    0.80091015    -0.12070000
opls_145-37    C    0.02697003    0.15338002    0.76527003    -0.12270000
opls_145-38    C    0.02715000    0.25388005    0.78561980    -0.16990000
opls_523-39    C    0.02698998    0.28055994    0.76875054    -0.12360000
opls_145-40    C    0.38078004    0.66076999    0.67398978    -0.16510000
opls_531-41    C    0.33548998    0.97420012    0.74684032    0.35990000
opls_523-42    C    0.91853004    0.30861007    0.78316029    -0.12370000
opls_145-43    C    0.89141011    0.30805007    0.78637970    -0.17360000
opls_145-44    C    0.89008993    0.33428004    0.75748014    0.20300000
opls_145-45    C    0.91687997    0.36093006    0.72038057    -0.17890000
opls_523-46    C    0.94394011    0.36125006    0.71715007    -0.12050000
opls_700-47    C    0.94537992    0.33520995    0.74883059    -0.00330000
opls_142-48    C    0.85670997    0.35316003    0.79448981    0.09930000
opls_145-49    C    0.80156006    0.32147001    0.74527988    -0.12300000
opls_145-50    C    0.77440013    0.31877007    0.69958988    -0.12270000
opls_700-51    C    0.77170001    0.34428003    0.67556007    0.06700000
opls_145-52    C    0.79612009    0.37231011    0.71667960    -0.12320000
opls_145-53    C    0.82317988    0.37496994    0.76575035    -0.12780000
opls_700-54    C    0.82684996    0.34976995    0.77221011    0.06310000
opls_700-55    C    0.69550007    0.33657998    0.58677012    0.06650000
opls_700-56    C    0.74472004    0.34173006    0.58766057    0.02960000
opls_145-57    C    0.87300995    0.89996994    0.80091015    -0.12070000
opls_145-58    C    0.84661992    0.87359000    0.76527003    -0.12270000
opls_145-59    C    0.74612009    0.77327002    0.78561980    -0.16980000
opls_523-60    C    0.71943996    0.74642992    0.76875054    -0.12360000
opls_145-61    C    0.33923009    0.72001009    0.67398978    -0.16510000
opls_531-62    C    0.02580006    0.36128995    0.74684032    0.35990000
opls_523-63    C    0.69139003    0.60992009    0.21683971    -0.12370000
opls_145-64    C    0.69195003    0.58336009    0.21362030    -0.17360000
opls_145-65    C    0.66572006    0.55581002    0.24251986    0.20310000
opls_145-66    C    0.63906994    0.55594996    0.27961943    -0.17890000
opls_523-67    C    0.63874992    0.58269001    0.28284993    -0.12050000
opls_700-68    C    0.66479014    0.61017011    0.25116941    -0.00330000
opls_142-69    C    0.64683994    0.50354997    0.20551019    0.09920000
opls_145-70    C    0.67852987    0.48008992    0.25472012    -0.12240000
opls_145-71    C    0.68123007    0.45562998    0.30041012    -0.12270000
opls_700-72    C    0.65572002    0.42742007    0.32443993    0.06710000
opls_145-73    C    0.62768994    0.42381004    0.28332040    -0.12320000
opls_145-74    C    0.62503000    0.44821004    0.23424965    -0.12780000
opls_700-75    C    0.65022994    0.47708001    0.22778989    0.06310000
opls_700-76    C    0.66341997    0.35892003    0.41322988    0.06750000
opls_700-77    C    0.65826997    0.40298999    0.41233943    0.02960000
opls_145-78    C    0.10003000    0.97304001    0.19908985    -0.12070000
opls_145-79    C    0.12641004    0.97302998    0.23472997    -0.12260000
opls_145-80    C    0.22672992    0.97284992    0.21438020    -0.16990000
opls_523-81    C    0.25356995    0.97300992    0.23124946    -0.12360000
opls_145-82    C    0.27998987    0.61921992    0.32601022    -0.16500000
opls_531-83    C    0.63870997    0.66450994    0.25315968    0.35980000
opls_523-84    C    0.39008004    0.08147007    0.21683971    -0.12370000
opls_145-85    C    0.41663997    0.10859006    0.21362030    -0.17360000
opls_145-86    C    0.44419002    0.10990995    0.24251986    0.20300000
opls_145-87    C    0.44404990    0.08311998    0.27961943    -0.17880000
opls_523-88    C    0.41730997    0.05605993    0.28284993    -0.12040000
opls_700-89    C    0.38982994    0.05461993    0.25116941    -0.00330000
opls_142-90    C    0.49645008    0.14329000    0.20551019    0.09920000
opls_145-91    C    0.51991007    0.19844007    0.25472012    -0.12300000
opls_145-92    C    0.54436999    0.22559995    0.30041012    -0.12270000
opls_700-93    C    0.57258008    0.22830012    0.32443993    0.06700000
opls_145-94    C    0.57619009    0.20388007    0.28332040    -0.12320000
opls_145-95    C    0.55178993    0.17682002    0.23424965    -0.12780000
opls_700-96    C    0.52292010    0.17315004    0.22778989    0.06310000
opls_700-97    C    0.64107996    0.30449999    0.41322988    0.06760000
opls_700-98    C    0.59700999    0.25527994    0.41233943    0.02960000
opls_145-99    C    0.02696005    0.12699006    0.19908985    -0.12070000
opls_145-100    C    0.02697003    0.15338002    0.23472997    -0.12270000
opls_145-101    C    0.02715000    0.25388005    0.21438020    -0.16990000
opls_523-102    C    0.02698998    0.28055994    0.23124946    -0.12360000
opls_145-103    C    0.38078004    0.66076999    0.32601022    -0.16510000
opls_531-104    C    0.33548998    0.97420012    0.25315968    0.35980000
opls_523-105    C    0.91853004    0.30861007    0.21683971    -0.12370000
opls_145-106    C    0.89141011    0.30805007    0.21362030    -0.17360000
opls_145-107    C    0.89008993    0.33428004    0.24251986    0.20300000
opls_145-108    C    0.91687997    0.36093006    0.27961943    -0.17880000
opls_523-109    C    0.94394011    0.36125006    0.28284993    -0.12050000
opls_700-110    C    0.94537992    0.33520995    0.25116941    -0.00330000
opls_142-111    C    0.85670997    0.35316003    0.20551019    0.09920000
opls_145-112    C    0.80156006    0.32147001    0.25472012    -0.12300000
opls_145-113    C    0.77440013    0.31877007    0.30041012    -0.12270000
opls_700-114    C    0.77170001    0.34428003    0.32443993    0.06700000
opls_145-115    C    0.79612009    0.37231011    0.28332040    -0.12320000
opls_145-116    C    0.82317988    0.37496994    0.23424965    -0.12780000
opls_700-117    C    0.82684996    0.34976995    0.22778989    0.06320000
opls_700-118    C    0.69550007    0.33657998    0.41322988    0.06650000
opls_700-119    C    0.74472004    0.34173006    0.41233943    0.02970000
opls_145-120    C    0.87300995    0.89996994    0.19908985    -0.12070000
opls_145-121    C    0.84661992    0.87359000    0.23472997    -0.12270000
opls_145-122    C    0.74612009    0.77327002    0.21438020    -0.16990000
opls_523-123    C    0.71943996    0.74642992    0.23124946    -0.12360000
opls_145-124    C    0.33923009    0.72001009    0.32601022    -0.16510000
opls_531-125    C    0.02580006    0.36128995    0.25315968    0.35980000
opls_523-126    C    0.60991997    0.69138993    0.21683971    -0.12370000
opls_145-127    C    0.58336004    0.69194993    0.21362030    -0.17360000
opls_145-128    C    0.55580989    0.66571996    0.24251986    0.20300000
opls_145-129    C    0.55594991    0.63906994    0.27961943    -0.17890000
opls_523-130    C    0.58269005    0.63874994    0.28284993    -0.12050000
opls_700-131    C    0.61016997    0.66479005    0.25116941    -0.00330000
opls_142-132    C    0.50354994    0.64683997    0.20551019    0.09920000
opls_145-133    C    0.48009005    0.67852999    0.25472012    -0.12300000
opls_145-134    C    0.45563006    0.68122993    0.30041012    -0.12270000
opls_700-135    C    0.42741997    0.65571997    0.32443993    0.06700000
opls_145-136    C    0.42381009    0.62769011    0.28332040    -0.12320000
opls_145-137    C    0.44820993    0.62503006    0.23424965    -0.12770000
opls_700-138    C    0.47708001    0.65023005    0.22778989    0.06310000
opls_700-139    C    0.35892009    0.66342002    0.41322988    0.06750000
opls_700-140    C    0.40298998    0.65826994    0.41233943    0.02960000
opls_145-141    C    0.97304001    0.10003006    0.19908985    -0.12070000
opls_145-142    C    0.97302992    0.12641000    0.23472997    -0.12270000
opls_145-143    C    0.97285006    0.22672998    0.21438020    -0.16980000
opls_523-144    C    0.97301004    0.25357008    0.23124946    -0.12360000
opls_145-145    C    0.61922000    0.27998991    0.32601022    -0.16510000
opls_531-146    C    0.66451011    0.63871005    0.25315968    0.35980000
opls_523-147    C    0.08146995    0.39007991    0.21683971    -0.12360000
opls_145-148    C    0.10858994    0.41663991    0.21362030    -0.17360000
opls_145-149    C    0.10991004    0.44418998    0.24251986    0.20300000
opls_145-150    C    0.08311998    0.44405004    0.27961943    -0.17890000
opls_523-151    C    0.05605991    0.41730999    0.28284993    -0.12050000
opls_700-152    C    0.05462013    0.38983011    0.25116941    -0.00330000
opls_142-153    C    0.14328997    0.49645003    0.20551019    0.09920000
opls_145-154    C    0.19843994    0.51991008    0.25472012    -0.12300000
opls_145-155    C    0.22560009    0.54437002    0.30041012    -0.12270000
opls_700-156    C    0.22829995    0.57257993    0.32443993    0.06700000
opls_145-157    C    0.20387989    0.57618996    0.28332040    -0.12320000
opls_145-158    C    0.17681996    0.55178996    0.23424965    -0.12780000
opls_700-159    C    0.17314994    0.52291999    0.22778989    0.06310000
opls_700-160    C    0.30449994    0.64107997    0.41322988    0.06760000
opls_700-161    C    0.25527997    0.59701001    0.41233943    0.02960000
opls_145-162    C    0.12698999    0.02695999    0.19908985    -0.12070000
opls_145-163    C    0.15338007    0.02697002    0.23472997    -0.12270000
opls_145-164    C    0.25388000    0.02715008    0.21438020    -0.16990000
opls_523-165    C    0.28056003    0.02699008    0.23124946    -0.12360000
opls_145-166    C    0.66076995    0.38078008    0.32601022    -0.16510000
opls_531-167    C    0.97420003    0.33549006    0.25315968    0.35980000
opls_523-168    C    0.30860997    0.91852993    0.21683971    -0.12370000
opls_145-169    C    0.30804991    0.89140994    0.21362030    -0.17360000
opls_145-170    C    0.33428007    0.89009005    0.24251986    0.20300000
opls_145-171    C    0.36092992    0.91688002    0.27961943    -0.17890000
opls_523-172    C    0.36125004    0.94394007    0.28284993    -0.12050000
opls_700-173    C    0.33521001    0.94538007    0.25116941    -0.00330000
opls_142-174    C    0.35316009    0.85671000    0.20551019    0.09920000
opls_145-175    C    0.32147001    0.80155993    0.25472012    -0.12300000
opls_145-176    C    0.31877004    0.77440005    0.30041012    -0.12260000
opls_700-177    C    0.34428007    0.77170011    0.32443993    0.06700000
opls_145-178    C    0.37231002    0.79611993    0.28332040    -0.12320000
opls_145-179    C    0.37496991    0.82317998    0.23424965    -0.12780000
opls_700-180    C    0.34977005    0.82684996    0.22778989    0.06310000
opls_700-181    C    0.33657997    0.69550001    0.41322988    0.06650000
opls_700-182    C    0.34173004    0.74472006    0.41233943    0.02960000
opls_145-183    C    0.89997000    0.87300994    0.19908985    -0.12070000
opls_145-184    C    0.87359001    0.84661998    0.23472997    -0.12270000
opls_145-185    C    0.77326994    0.74611995    0.21438020    -0.16990000
opls_523-186    C    0.74643004    0.71944006    0.23124946    -0.12360000
opls_145-187    C    0.72001005    0.33923001    0.32601022    -0.16510000
opls_531-188    C    0.36128997    0.02580011    0.25315968    0.35980000
opls_523-189    C    0.60991997    0.69138993    0.78316029    -0.12370000
opls_145-190    C    0.58336004    0.69194993    0.78637970    -0.17360000
opls_145-191    C    0.55580989    0.66571996    0.75748014    0.20300000
opls_145-192    C    0.55594991    0.63906994    0.72038057    -0.17890000
opls_523-193    C    0.58269005    0.63874994    0.71715007    -0.12050000
opls_700-194    C    0.61016997    0.66479005    0.74883059    -0.00330000
opls_142-195    C    0.50354994    0.64683997    0.79448981    0.09920000
opls_145-196    C    0.48009005    0.67852999    0.74527988    -0.12300000
opls_145-197    C    0.45563006    0.68122993    0.69958988    -0.12270000
opls_700-198    C    0.42741997    0.65571997    0.67556007    0.06700000
opls_145-199    C    0.42381009    0.62769011    0.71667960    -0.12320000
opls_145-200    C    0.44820993    0.62503006    0.76575035    -0.12780000
opls_700-201    C    0.47708001    0.65023005    0.77221011    0.06320000
opls_700-202    C    0.35892009    0.66342002    0.58677012    0.06750000
opls_700-203    C    0.40298998    0.65826994    0.58766057    0.02960000
opls_145-204    C    0.97304001    0.10003006    0.80091015    -0.12070000
opls_145-205    C    0.97302992    0.12641000    0.76527003    -0.12260000
opls_145-206    C    0.97285006    0.22672998    0.78561980    -0.16990000
opls_523-207    C    0.97301004    0.25357008    0.76875054    -0.12360000
opls_145-208    C    0.61922000    0.27998991    0.67398978    -0.16500000
opls_531-209    C    0.66451011    0.63871005    0.74684032    0.35980000
opls_523-210    C    0.08146995    0.39007991    0.78316029    -0.12370000
opls_145-211    C    0.10858994    0.41663991    0.78637970    -0.17360000
opls_145-212    C    0.10991004    0.44418998    0.75748014    0.20300000
opls_145-213    C    0.08311998    0.44405004    0.72038057    -0.17880000
opls_523-214    C    0.05605991    0.41730999    0.71715007    -0.12050000
opls_700-215    C    0.05462013    0.38983011    0.74883059    -0.00330000
opls_142-216    C    0.14328997    0.49645003    0.79448981    0.09920000
opls_145-217    C    0.19843994    0.51991008    0.74527988    -0.12300000
opls_145-218    C    0.22560009    0.54437002    0.69958988    -0.12270000
opls_700-219    C    0.22829995    0.57257993    0.67556007    0.06700000
opls_145-220    C    0.20387989    0.57618996    0.71667960    -0.12320000
opls_145-221    C    0.17681996    0.55178996    0.76575035    -0.12780000
opls_700-222    C    0.17314994    0.52291999    0.77221011    0.06310000
opls_700-223    C    0.30449994    0.64107997    0.58677012    0.06760000
opls_700-224    C    0.25527997    0.59701001    0.58766057    0.02960000
opls_145-225    C    0.12698999    0.02695999    0.80091015    -0.12070000
opls_145-226    C    0.15338007    0.02697002    0.76527003    -0.12270000
opls_145-227    C    0.25388000    0.02715008    0.78561980    -0.16990000
opls_523-228    C    0.28056003    0.02699008    0.76875054    -0.12360000
opls_145-229    C    0.66076995    0.38078008    0.67398978    -0.16510000
opls_531-230    C    0.97420003    0.33549006    0.74684032    0.35980000
opls_523-231    C    0.30860997    0.91852993    0.78316029    -0.12360000
opls_145-232    C    0.30804991    0.89140994    0.78637970    -0.17360000
opls_145-233    C    0.33428007    0.89009005    0.75748014    0.20300000
opls_145-234    C    0.36092992    0.91688002    0.72038057    -0.17890000
opls_523-235    C    0.36125004    0.94394007    0.71715007    -0.12040000
opls_700-236    C    0.33521001    0.94538007    0.74883059    -0.00330000
opls_142-237    C    0.35316009    0.85671000    0.79448981    0.09920000
opls_145-238    C    0.32147001    0.80155993    0.74527988    -0.12300000
opls_145-239    C    0.31877004    0.77440005    0.69958988    -0.12270000
opls_700-240    C    0.34428007    0.77170011    0.67556007    0.06700000
opls_145-241    C    0.37231002    0.79611993    0.71667960    -0.12320000
opls_145-242    C    0.37496991    0.82317998    0.76575035    -0.12780000
opls_700-243    C    0.34977005    0.82684996    0.77221011    0.06310000
opls_700-244    C    0.33657997    0.69550001    0.58677012    0.06650000
opls_700-245    C    0.34173004    0.74472006    0.58766057    0.02960000
opls_145-246    C    0.89997000    0.87300994    0.80091015    -0.12050000
opls_145-247    C    0.87359001    0.84661998    0.76527003    -0.12260000
opls_145-248    C    0.77326994    0.74611995    0.78561980    -0.16990000
opls_523-249    C    0.74643004    0.71944006    0.76875054    -0.12360000
opls_145-250    C    0.72001005    0.33923001    0.67398978    -0.16510000
opls_531-251    C    0.36128997    0.02580011    0.74684032    0.35980000
opls_700-252    C    0.07415009    0.00000000    0.91224952    0.03000000
opls_700-253    C    0.02734999    0.00000000    0.91323973    0.06750000
opls_700-254    C    0.15364995    0.00000000    0.75578053    0.05890000
opls_700-255    C    0.10023004    0.00000000    0.82758052    0.06590000
opls_142-256    C    0.18215998    0.00000000    0.72306053    0.08620000
opls_700-257    C    0.28103004    0.00000000    0.76211959    -0.00460000
opls_145-258    C    0.22661993    0.00000000    0.79544061    0.20310000
opls_145-259    C    0.05063994    0.00000000    0.17423979    -0.16030000
opls_700-260    C    0.00000003    0.07414996    0.91224952    0.03000000
opls_700-261    C    0.99999999    0.02734997    0.91323973    0.06760000
opls_700-262    C    0.99999998    0.15365011    0.75578053    0.05890000
opls_700-263    C    0.99999996    0.10022995    0.82758052    0.06590000
opls_142-264    C    0.99999999    0.18215996    0.72306053    0.08620000
opls_700-265    C    0.00000003    0.28102991    0.76211959    -0.00460000
opls_145-266    C    1.00000000    0.22662012    0.79544061    0.20310000
opls_145-267    C    0.00000002    0.05063999    0.17423979    -0.16030000
opls_700-268    C    0.92585007    0.92585004    0.91224952    0.03000000
opls_700-269    C    0.97265002    0.97265003    0.91323973    0.06750000
opls_700-270    C    0.84634999    0.84635012    0.75578053    0.05890000
opls_700-271    C    0.89977001    0.89977005    0.82758052    0.06590000
opls_142-272    C    0.81784003    0.81784004    0.72306053    0.08620000
opls_700-273    C    0.71897012    0.71897009    0.76211959    -0.00460000
opls_145-274    C    0.77337999    0.77338011    0.79544061    0.20300000
opls_145-275    C    0.94936003    0.94936001    0.17423979    -0.16030000
opls_700-276    C    0.07415009    0.00000000    0.08775048    0.03000000
opls_700-277    C    0.02734999    0.00000000    0.08676027    0.06750000
opls_700-278    C    0.15364995    0.00000000    0.24421947    0.05890000
opls_700-279    C    0.10023004    0.00000000    0.17241948    0.06590000
opls_142-280    C    0.18215998    0.00000000    0.27693947    0.08620000
opls_700-281    C    0.28103004    0.00000000    0.23788041    -0.00460000
opls_145-282    C    0.22661993    0.00000000    0.20455939    0.20300000
opls_145-283    C    0.05063994    0.00000000    0.82576021    -0.16030000
opls_700-284    C    0.00000003    0.07414996    0.08775048    0.03000000
opls_700-285    C    0.99999999    0.02734997    0.08676027    0.06750000
opls_700-286    C    0.99999998    0.15365011    0.24421947    0.05890000
opls_700-287    C    0.99999996    0.10022995    0.17241948    0.06590000
opls_142-288    C    0.99999999    0.18215996    0.27693947    0.08620000
opls_700-289    C    0.00000003    0.28102991    0.23788041    -0.00460000
opls_145-290    C    1.00000000    0.22662012    0.20455939    0.20300000
opls_145-291    C    0.00000002    0.05063999    0.82576021    -0.16030000
opls_700-292    C    0.92585007    0.92585004    0.08775048    0.03000000
opls_700-293    C    0.97265002    0.97265003    0.08676027    0.06750000
opls_700-294    C    0.84634999    0.84635012    0.24421947    0.05890000
opls_700-295    C    0.89977001    0.89977005    0.17241948    0.06590000
opls_142-296    C    0.81784003    0.81784004    0.27693947    0.08620000
opls_700-297    C    0.71897012    0.71897009    0.23788041    -0.00460000
opls_145-298    C    0.77337999    0.77338011    0.20455939    0.20300000
opls_145-299    C    0.94936003    0.94936001    0.82576021    -0.16030000
opls_531-300    C    0.69034001    0.69034012    0.75408954    0.35740000
opls_531-301    C    0.30965992    0.00000000    0.75408954    0.35740000
opls_531-302    C    0.99999999    0.30966010    0.75408954    0.35750000
opls_531-303    C    0.69034001    0.69034012    0.24591046    0.35740000
opls_531-304    C    0.30965992    0.00000000    0.24591046    0.35750000
opls_531-305    C    0.99999999    0.30966010    0.24591046    0.35740000
opls_701-306    C    0.66667005    0.33333006    0.66115032    -0.08030000
opls_701-307    C    0.66667005    0.33333006    0.33884968    -0.08030000
opls_701-308    C    0.33332995    0.66666994    0.33884968    -0.08030000
opls_701-309    C    0.33332995    0.66666994    0.66115032    -0.08030000
opls_701-310    C    0.00000000    0.00000000    0.16109982    -0.07020000
opls_701-311    C    0.00000000    0.00000000    0.83890018    -0.07020000
opls_750-312    N    0.66819007    0.52989002    0.75481003    -0.27860000
opls_520-313    N    0.66450993    0.69107996    0.75260053    -0.42050000
opls_750-314    N    0.47010987    0.13829991    0.75481003    -0.27870000
opls_520-315    N    0.30891997    0.97342998    0.75260053    -0.42060000
opls_750-316    N    0.86170006    0.33181007    0.75481003    -0.27870000
opls_520-317    N    0.02657009    0.33549006    0.75260053    -0.42030000
opls_750-318    N    0.66819007    0.52989002    0.24518997    -0.27870000
opls_520-319    N    0.66450993    0.69107996    0.24739947    -0.42060000
opls_750-320    N    0.47010987    0.13829991    0.24518997    -0.27870000
opls_520-321    N    0.30891997    0.97342998    0.24739947    -0.42060000
opls_750-322    N    0.86170006    0.33181007    0.24518997    -0.27870000
opls_520-323    N    0.02657009    0.33549006    0.24739947    -0.42050000
opls_750-324    N    0.52988999    0.66818993    0.24518997    -0.27870000
opls_520-325    N    0.69108003    0.66450994    0.24739947    -0.42050000
opls_750-326    N    0.13830005    0.47010998    0.24518997    -0.27870000
opls_520-327    N    0.97342998    0.30892004    0.24739947    -0.42040000
opls_750-328    N    0.33180996    0.86170009    0.24518997    -0.27870000
opls_520-329    N    0.33548999    0.02657002    0.24739947    -0.42060000
opls_750-330    N    0.52988999    0.66818993    0.75481003    -0.27870000
opls_520-331    N    0.69108003    0.66450994    0.75260053    -0.42050000
opls_750-332    N    0.13830005    0.47010998    0.75481003    -0.27870000
opls_520-333    N    0.97342998    0.30892004    0.75260053    -0.42050000
opls_750-334    N    0.33180996    0.86170009    0.75481003    -0.27860000
opls_520-335    N    0.33548999    0.02657002    0.75260053    -0.42050000
opls_750-336    N    0.19986993    0.00000000    0.83265965    -0.28190000
opls_750-337    N    0.00000006    0.19987004    0.83265965    -0.28180000
opls_750-338    N    0.80013002    0.80012996    0.83265965    -0.28180000
opls_750-339    N    0.19986993    0.00000000    0.16734035    -0.28190000
opls_750-340    N    0.00000006    0.19987004    0.16734035    -0.28190000
opls_750-341    N    0.80013002    0.80012996    0.16734035    -0.28180000
opls_520-342    N    0.63789006    0.63789000    0.74183016    -0.44050000
opls_520-343    N    0.36211007    0.00000000    0.74183016    -0.44050000
opls_520-344    N    0.00000006    0.36211000    0.74183016    -0.44040000
opls_520-345    N    0.63789006    0.63789000    0.25816984    -0.44050000
opls_520-346    N    0.36211007    0.00000000    0.25816984    -0.44040000
opls_520-347    N    0.00000006    0.36211000    0.25816984    -0.44050000
opls_526-348    H    0.71177002    0.63089011    0.80755958    0.11230000
opls_146-349    H    0.71261997    0.58358004    0.81458957    0.11330000
opls_146-350    H    0.61874008    0.53525002    0.69038980    0.11270000
opls_526-351    H    0.61807009    0.58239007    0.68786994    0.11310000
opls_144-352    H    0.62480009    0.49936011    0.84142989    0.04740000
opls_146-353    H    0.69842003    0.50199008    0.75532976    0.11300000
opls_146-354    H    0.70322995    0.45868001    0.67356980    0.11260000
opls_146-355    H    0.60771007    0.40204002    0.70320956    0.11260000
opls_146-356    H    0.60295000    0.44504993    0.79111029    0.11450000
opls_146-357    H    0.07941003    0.95188993    0.81698011    0.11260000
opls_146-358    H    0.12601000    0.95189996    0.75198965    0.11210000
opls_146-359    H    0.20577998    0.95182998    0.79338999    0.11300000
opls_526-360    H    0.25337002    0.95189996    0.76286963    0.11230000
opls_146-361    H    0.27998999    0.61921011    0.80834042    0.11270000
opls_526-362    H    0.36911001    0.08087998    0.80755958    0.11230000
opls_146-363    H    0.41641993    0.12903997    0.81458957    0.11330000
opls_146-364    H    0.46474986    0.08348990    0.69038980    0.11270000
opls_526-365    H    0.41760996    0.03567999    0.68786994    0.11310000
opls_144-366    H    0.50064002    0.12543997    0.84142989    0.04740000
opls_146-367    H    0.49801007    0.19643004    0.75532976    0.11300000
opls_146-368    H    0.54131999    0.24454992    0.67356980    0.11260000
opls_146-369    H    0.59795994    0.20566993    0.70320956    0.11260000
opls_146-370    H    0.55495001    0.15789991    0.79111029    0.11450000
opls_146-371    H    0.04810997    0.12751997    0.81698011    0.11260000
opls_146-372    H    0.04810000    0.17411004    0.75198965    0.11210000
opls_146-373    H    0.04817010    0.25395003    0.79338999    0.11300000
opls_526-374    H    0.04809998    0.30147002    0.76286963    0.11230000
opls_146-375    H    0.38079007    0.66078002    0.80834042    0.11270000
opls_526-376    H    0.91911997    0.28822991    0.80755958    0.11230000
opls_146-377    H    0.87096009    0.28737999    0.81458957    0.11230000
opls_146-378    H    0.91651006    0.38126008    0.69038980    0.11270000
opls_526-379    H    0.96431996    0.38192994    0.68786994    0.11310000
opls_144-380    H    0.87455989    0.37519992    0.84142989    0.04740000
opls_146-381    H    0.80357001    0.30158010    0.75532976    0.11300000
opls_146-382    H    0.75545007    0.29677007    0.67356980    0.11270000
opls_146-383    H    0.79432999    0.39229005    0.70320956    0.11260000
opls_146-384    H    0.84209988    0.39704994    0.79111029    0.11450000
opls_146-385    H    0.87248000    0.92059010    0.81698011    0.11270000
opls_146-386    H    0.82589000    0.87399000    0.75198965    0.11220000
opls_146-387    H    0.74604992    0.79421999    0.79338999    0.11300000
opls_526-388    H    0.69853000    0.74663003    0.76286963    0.11230000
opls_146-389    H    0.33922005    0.72001009    0.80834042    0.11270000
opls_526-390    H    0.71177002    0.63089011    0.19244042    0.11230000
opls_146-391    H    0.71261997    0.58358004    0.18541043    0.11330000
opls_146-392    H    0.61874008    0.53525002    0.30961020    0.11270000
opls_526-393    H    0.61807009    0.58239007    0.31213006    0.11320000
opls_144-394    H    0.62480009    0.49936011    0.15857011    0.04740000
opls_146-395    H    0.69842003    0.50199008    0.24467024    0.11300000
opls_146-396    H    0.70322995    0.45868001    0.32643020    0.11260000
opls_146-397    H    0.60771007    0.40204002    0.29679044    0.11260000
opls_146-398    H    0.60295000    0.44504993    0.20888971    0.11450000
opls_146-399    H    0.07941003    0.95188993    0.18301989    0.11270000
opls_146-400    H    0.12601000    0.95189996    0.24801035    0.11210000
opls_146-401    H    0.20577998    0.95182998    0.20661001    0.11300000
opls_526-402    H    0.25337002    0.95189996    0.23713037    0.11230000
opls_146-403    H    0.27998999    0.61921011    0.19165958    0.11270000
opls_526-404    H    0.36911001    0.08087998    0.19244042    0.11230000
opls_146-405    H    0.41641993    0.12903997    0.18541043    0.11330000
opls_146-406    H    0.46474986    0.08348990    0.30961020    0.11270000
opls_526-407    H    0.41760996    0.03567999    0.31213006    0.11310000
opls_144-408    H    0.50064002    0.12543997    0.15857011    0.04740000
opls_146-409    H    0.49801007    0.19643004    0.24467024    0.11300000
opls_146-410    H    0.54131999    0.24454992    0.32643020    0.11260000
opls_146-411    H    0.59795994    0.20566993    0.29679044    0.11260000
opls_146-412    H    0.55495001    0.15789991    0.20888971    0.11450000
opls_146-413    H    0.04810997    0.12751997    0.18301989    0.11260000
opls_146-414    H    0.04810000    0.17411004    0.24801035    0.11210000
opls_146-415    H    0.04817010    0.25395003    0.20661001    0.11300000
opls_526-416    H    0.04809998    0.30147002    0.23713037    0.11230000
opls_146-417    H    0.38079007    0.66078002    0.19165958    0.11270000
opls_526-418    H    0.91911997    0.28822991    0.19244042    0.11230000
opls_146-419    H    0.87096009    0.28737999    0.18541043    0.11230000
opls_146-420    H    0.91651006    0.38126008    0.30961020    0.11280000
opls_526-421    H    0.96431996    0.38192994    0.31213006    0.11310000
opls_144-422    H    0.87455989    0.37519992    0.15857011    0.04740000
opls_146-423    H    0.80357001    0.30158010    0.24467024    0.11300000
opls_146-424    H    0.75545007    0.29677007    0.32643020    0.11260000
opls_146-425    H    0.79432999    0.39229005    0.29679044    0.11260000
opls_146-426    H    0.84209988    0.39704994    0.20888971    0.11450000
opls_146-427    H    0.87248000    0.92059010    0.18301989    0.11260000
opls_146-428    H    0.82589000    0.87399000    0.24801035    0.11210000
opls_146-429    H    0.74604992    0.79421999    0.20661001    0.11300000
opls_526-430    H    0.69853000    0.74663003    0.23713037    0.11230000
opls_146-431    H    0.33922005    0.72001009    0.19165958    0.11270000
opls_526-432    H    0.63089006    0.71177009    0.19244042    0.11230000
opls_146-433    H    0.58358010    0.71262001    0.18541043    0.11230000
opls_146-434    H    0.53524998    0.61873992    0.30961020    0.11270000
opls_526-435    H    0.58239002    0.61807006    0.31213006    0.11310000
opls_144-436    H    0.49935997    0.62480008    0.15857011    0.04740000
opls_146-437    H    0.50199003    0.69842012    0.24467024    0.11300000
opls_146-438    H    0.45867999    0.70322993    0.32643020    0.11260000
opls_146-439    H    0.40203994    0.60770995    0.29679044    0.11260000
opls_146-440    H    0.44504994    0.60295006    0.20888971    0.11450000
opls_146-441    H    0.95188990    0.07940990    0.18301989    0.11260000
opls_146-442    H    0.95190000    0.12601000    0.24801035    0.11210000
opls_146-443    H    0.95182993    0.20578001    0.20661001    0.11300000
opls_526-444    H    0.95189997    0.25336997    0.23713037    0.11230000
opls_146-445    H    0.61920996    0.27998991    0.19165958    0.11280000
opls_526-446    H    0.08088002    0.36911011    0.19244042    0.11230000
opls_146-447    H    0.12903994    0.41641996    0.18541043    0.11330000
opls_146-448    H    0.08349006    0.46474998    0.30961020    0.11270000
opls_526-449    H    0.03568002    0.41760993    0.31213006    0.11310000
opls_144-450    H    0.12544009    0.50064011    0.15857011    0.04740000
opls_146-451    H    0.19642994    0.49800992    0.24467024    0.11300000
opls_146-452    H    0.24454994    0.54131999    0.32643020    0.11260000
opls_146-453    H    0.20567005    0.59795998    0.29679044    0.11260000
opls_146-454    H    0.15790007    0.55495007    0.20888971    0.11450000
opls_146-455    H    0.12752010    0.04811007    0.18301989    0.11260000
opls_146-456    H    0.17411004    0.04810004    0.24801035    0.11210000
opls_146-457    H    0.25395000    0.04817002    0.20661001    0.11300000
opls_526-458    H    0.30147007    0.04810004    0.23713037    0.11230000
opls_146-459    H    0.66077999    0.38079011    0.19165958    0.11270000
opls_526-460    H    0.28823003    0.91912002    0.19244042    0.11240000
opls_146-461    H    0.28737996    0.87096003    0.18541043    0.11330000
opls_146-462    H    0.38125996    0.91651010    0.30961020    0.11270000
opls_526-463    H    0.38192996    0.96432001    0.31213006    0.11310000
opls_144-464    H    0.37520005    0.87456003    0.15857011    0.04740000
opls_146-465    H    0.30158003    0.80356996    0.24467024    0.11300000
opls_146-466    H    0.29677007    0.75545008    0.32643020    0.11260000
opls_146-467    H    0.39229001    0.79433007    0.29679044    0.11260000
opls_146-468    H    0.39705010    0.84210009    0.20888971    0.11450000
opls_146-469    H    0.92059000    0.87248003    0.18301989    0.11260000
opls_146-470    H    0.87398996    0.82588996    0.24801035    0.11210000
opls_146-471    H    0.79422007    0.74604997    0.20661001    0.11300000
opls_526-472    H    0.74662996    0.69852998    0.23713037    0.11230000
opls_146-473    H    0.72001005    0.33921998    0.19165958    0.11270000
opls_526-474    H    0.63089006    0.71177009    0.80755958    0.11230000
opls_146-475    H    0.58358010    0.71262001    0.81458957    0.11230000
opls_146-476    H    0.53524998    0.61873992    0.69038980    0.11270000
opls_526-477    H    0.58239002    0.61807006    0.68786994    0.11310000
opls_144-478    H    0.49935997    0.62480008    0.84142989    0.04740000
opls_146-479    H    0.50199003    0.69842012    0.75532976    0.11300000
opls_146-480    H    0.45867999    0.70322993    0.67356980    0.11260000
opls_146-481    H    0.40203994    0.60770995    0.70320956    0.11260000
opls_146-482    H    0.44504994    0.60295006    0.79111029    0.11460000
opls_146-483    H    0.95188990    0.07940990    0.81698011    0.11260000
opls_146-484    H    0.95190000    0.12601000    0.75198965    0.11210000
opls_146-485    H    0.95182993    0.20578001    0.79338999    0.11300000
opls_526-486    H    0.95189997    0.25336997    0.76286963    0.11230000
opls_146-487    H    0.61920996    0.27998991    0.80834042    0.11270000
opls_526-488    H    0.08088002    0.36911011    0.80755958    0.11230000
opls_146-489    H    0.12903994    0.41641996    0.81458957    0.11330000
opls_146-490    H    0.08349006    0.46474998    0.69038980    0.11270000
opls_526-491    H    0.03568002    0.41760993    0.68786994    0.11310000
opls_144-492    H    0.12544009    0.50064011    0.84142989    0.04740000
opls_146-493    H    0.19642994    0.49800992    0.75532976    0.11300000
opls_146-494    H    0.24454994    0.54131999    0.67356980    0.11270000
opls_146-495    H    0.20567005    0.59795998    0.70320956    0.11270000
opls_146-496    H    0.15790007    0.55495007    0.79111029    0.11450000
opls_146-497    H    0.12752010    0.04811007    0.81698011    0.11260000
opls_146-498    H    0.17411004    0.04810004    0.75198965    0.11210000
opls_146-499    H    0.25395000    0.04817002    0.79338999    0.11300000
opls_526-500    H    0.30147007    0.04810004    0.76286963    0.11230000
opls_146-501    H    0.66077999    0.38079011    0.80834042    0.11270000
opls_526-502    H    0.28823003    0.91912002    0.80755958    0.11230000
opls_146-503    H    0.28737996    0.87096003    0.81458957    0.11330000
opls_146-504    H    0.38125996    0.91651010    0.69038980    0.11270000
opls_526-505    H    0.38192996    0.96432001    0.68786994    0.11310000
opls_144-506    H    0.37520005    0.87456003    0.84142989    0.04740000
opls_146-507    H    0.30158003    0.80356996    0.75532976    0.11300000
opls_146-508    H    0.29677007    0.75545008    0.67356980    0.11270000
opls_146-509    H    0.39229001    0.79433007    0.70320956    0.11260000
opls_146-510    H    0.39705010    0.84210009    0.79111029    0.11450000
opls_146-511    H    0.92059000    0.87248003    0.81698011    0.11260000
opls_146-512    H    0.87398996    0.82588996    0.75198965    0.11210000
opls_146-513    H    0.79422007    0.74604997    0.79338999    0.11300000
opls_526-514    H    0.74662996    0.69852998    0.76286963    0.11230000
opls_146-515    H    0.72001005    0.33921998    0.80834042    0.11270000
opls_146-516    H    0.94937007    0.94937004    0.30859043    0.11270000
opls_146-517    H    0.05062991    0.00000000    0.30859043    0.11280000
opls_146-518    H    0.00000003    0.05062996    0.30859043    0.11270000
opls_146-519    H    0.94937007    0.94937004    0.69140957    0.11270000
opls_146-520    H    0.05062991    0.00000000    0.69140957    0.11270000
opls_146-521    H    0.00000003    0.05062996    0.69140957    0.11270000
opls_702-522    H    0.33332995    0.66666994    0.79680030    0.10880000
opls_702-523    H    0.33332995    0.66666994    0.20319970    0.10890000
opls_702-524    H    0.66667005    0.33333006    0.20319970    0.10880000
opls_702-525    H    0.66667005    0.33333006    0.79680030    0.10880000
opls_702-526    H    0.00000000    0.00000000    0.29674980    0.10880000
opls_702-527    H    0.00000000    0.00000000    0.70325020    0.10880000
opls_144-528    H    0.81245997    0.81245999    0.59105979    0.06300000
opls_144-529    H    0.18754004    0.00000000    0.59105979    0.06300000
opls_144-530    H    0.99999998    0.18754001    0.59105979    0.06300000
opls_144-531    H    0.81245997    0.81245999    0.40894021    0.06300000
opls_144-532    H    0.18754004    0.00000000    0.40894021    0.06300000
opls_144-533    H    0.99999998    0.18754001    0.40894021    0.06300000
