#======================================================================
# Crystal Data Generated By AuToFF
#----------------------------------------------------------------------

data_AuToFF_phase_1

_cell_length_a                         33.9708
_cell_length_b                         33.9708
_cell_length_c                         7.6236
_cell_angle_alpha                      90.00
_cell_angle_beta                       90.00
_cell_angle_gamma                      90.00
_symmetry_space_group_name_H-M_alt     'P 1'
_symmetry_space_group_IT_number        1

loop_
_space_group_symop_operation_xyz
   'x, y, z'

loop_
   _atom_site_label
   _atom_site_type_symbol
   _atom_site_fract_x
   _atom_site_fract_y
   _atom_site_fract_z
   _atom_site_charge
opls_145-0    C    0.51514006    0.66376005    0.73393935    0.21810000
opls_145-1    C    0.55743992    0.67186996    0.64384018    -0.11770000
opls_145-2    C    0.55366992    0.69268990    0.49456031    -0.08470000
opls_700-3    C    0.50741990    0.70561011    0.43263025    0.09820000
opls_145-4    C    0.46494990    0.69709986    0.52318983    -0.09120000
opls_145-5    C    0.46869988    0.67625991    0.67254053    -0.11400000
opls_145-6    C    0.45743992    0.74148004    0.21324046    -0.08460000
opls_700-7    C    0.50359014    0.72825986    0.27506952    0.09820000
opls_145-8    C    0.54610989    0.73704005    0.18518941    -0.09100000
opls_142-9    C    0.48380992    0.63519994    0.98115064    0.03960000
opls_700-10    C    0.49032993    0.60815995    0.12841046    0.09880000
opls_145-11    C    0.44932000    0.59945012    0.22368041    -0.08420000
opls_145-12    C    0.45313004    0.56774995    0.35240044    -0.07830000
opls_700-13    C    0.49816990    0.54459006    0.38906947    0.10890000
opls_145-14    C    0.53955986    0.55508996    0.29499974    -0.08150000
opls_145-15    C    0.53576012    0.58669004    0.16645942    -0.07810000
opls_145-16    C    0.01514006    0.16376005    0.23393935    0.21810000
opls_145-17    C    0.05743992    0.17186996    0.14384018    -0.11770000
opls_145-18    C    0.05366992    0.19268990    0.99456031    -0.08470000
opls_700-19    C    0.00741990    0.20561011    0.93263025    0.09820000
opls_145-20    C    0.96494990    0.19709986    0.02318983    -0.09120000
opls_145-21    C    0.96869988    0.17625991    0.17254053    -0.11400000
opls_145-22    C    0.95743992    0.24148004    0.71324046    -0.08470000
opls_700-23    C    0.00359014    0.22825986    0.77506952    0.09820000
opls_145-24    C    0.04610989    0.23704005    0.68518941    -0.09100000
opls_142-25    C    0.98380992    0.13519994    0.48115064    0.03970000
opls_700-26    C    0.99032993    0.10815995    0.62841046    0.09880000
opls_145-27    C    0.94932000    0.09945012    0.72368041    -0.08420000
opls_145-28    C    0.95313004    0.06774995    0.85240044    -0.07830000
opls_700-29    C    0.99816990    0.04459006    0.88906947    0.10890000
opls_145-30    C    0.03955986    0.05508996    0.79499974    -0.08150000
opls_145-31    C    0.03576012    0.08669004    0.66645942    -0.07810000
opls_145-32    C    0.98485994    0.83623995    0.23393935    0.21820000
opls_145-33    C    0.94256008    0.82813004    0.14384018    -0.11770000
opls_145-34    C    0.94633008    0.80731010    0.99456031    -0.08470000
opls_700-35    C    0.99258010    0.79438989    0.93263025    0.09820000
opls_145-36    C    0.03505010    0.80290014    0.02318983    -0.09120000
opls_145-37    C    0.03130012    0.82374009    0.17254053    -0.11410000
opls_145-38    C    0.04256008    0.75851996    0.71324046    -0.08470000
opls_700-39    C    0.99640986    0.77174014    0.77506952    0.09820000
opls_145-40    C    0.95389011    0.76295995    0.68518941    -0.09100000
opls_142-41    C    0.01619008    0.86480006    0.48115064    0.03960000
opls_700-42    C    0.00967007    0.89184005    0.62841046    0.09880000
opls_145-43    C    0.05068000    0.90054988    0.72368041    -0.08410000
opls_145-44    C    0.04686996    0.93225005    0.85240044    -0.07830000
opls_700-45    C    0.00183010    0.95540994    0.88906947    0.10890000
opls_145-46    C    0.96044014    0.94491004    0.79499974    -0.08150000
opls_145-47    C    0.96423988    0.91330996    0.66645942    -0.07810000
opls_145-48    C    0.48485994    0.33623995    0.73393935    0.21810000
opls_145-49    C    0.44256008    0.32813004    0.64384018    -0.11770000
opls_145-50    C    0.44633008    0.30731010    0.49456031    -0.08470000
opls_700-51    C    0.49258010    0.29438989    0.43263025    0.09820000
opls_145-52    C    0.53505010    0.30290014    0.52318983    -0.09110000
opls_145-53    C    0.53130012    0.32374009    0.67254053    -0.11410000
opls_145-54    C    0.54256008    0.25851996    0.21324046    -0.08470000
opls_700-55    C    0.49640986    0.27174014    0.27506952    0.09820000
opls_145-56    C    0.45389011    0.26295995    0.18518941    -0.09100000
opls_142-57    C    0.51619008    0.36480006    0.98115064    0.03960000
opls_700-58    C    0.50967007    0.39184005    0.12841046    0.09880000
opls_145-59    C    0.55068000    0.40054988    0.22368041    -0.08420000
opls_145-60    C    0.54686996    0.43225005    0.35240044    -0.07830000
opls_700-61    C    0.50183010    0.45540994    0.38906947    0.10890000
opls_145-62    C    0.46044014    0.44491004    0.29499974    -0.08150000
opls_145-63    C    0.46423988    0.41330996    0.16645942    -0.07810000
opls_145-64    C    0.33623995    0.01514006    0.98393935    0.21810000
opls_145-65    C    0.32813004    0.05743992    0.89384018    -0.11770000
opls_145-66    C    0.30731010    0.05366992    0.74456031    -0.08470000
opls_700-67    C    0.29438989    0.00741990    0.68263025    0.09820000
opls_145-68    C    0.30290014    0.96494990    0.77318983    -0.09120000
opls_145-69    C    0.32374009    0.96869988    0.92254053    -0.11410000
opls_145-70    C    0.25851996    0.95743992    0.46324046    -0.08470000
opls_700-71    C    0.27174014    0.00359014    0.52506952    0.09820000
opls_145-72    C    0.26295995    0.04610989    0.43518941    -0.09100000
opls_142-73    C    0.36480006    0.98380992    0.23115064    0.03960000
opls_700-74    C    0.39184005    0.99032993    0.37841046    0.09880000
opls_145-75    C    0.40054988    0.94932000    0.47368041    -0.08420000
opls_145-76    C    0.43225005    0.95313004    0.60240044    -0.07830000
opls_700-77    C    0.45540994    0.99816990    0.63906947    0.10890000
opls_145-78    C    0.44491004    0.03955986    0.54499974    -0.08150000
opls_145-79    C    0.41330996    0.03576012    0.41645942    -0.07810000
opls_145-80    C    0.83623995    0.51514006    0.48393935    0.21810000
opls_145-81    C    0.82813004    0.55743992    0.39384018    -0.11770000
opls_145-82    C    0.80731010    0.55366992    0.24456031    -0.08470000
opls_700-83    C    0.79438989    0.50741990    0.18263025    0.09820000
opls_145-84    C    0.80290014    0.46494990    0.27318983    -0.09120000
opls_145-85    C    0.82374009    0.46869988    0.42254053    -0.11410000
opls_145-86    C    0.75851996    0.45743992    0.96324046    -0.08470000
opls_700-87    C    0.77174014    0.50359014    0.02506952    0.09820000
opls_145-88    C    0.76295995    0.54610989    0.93518941    -0.09100000
opls_142-89    C    0.86480006    0.48380992    0.73115064    0.03960000
opls_700-90    C    0.89184005    0.49032993    0.87841046    0.09880000
opls_145-91    C    0.90054988    0.44932000    0.97368041    -0.08420000
opls_145-92    C    0.93225005    0.45313004    0.10240044    -0.07830000
opls_700-93    C    0.95540994    0.49816990    0.13906947    0.10890000
opls_145-94    C    0.94491004    0.53955986    0.04499974    -0.08150000
opls_145-95    C    0.91330996    0.53576012    0.91645942    -0.07810000
opls_145-96    C    0.16376005    0.48485994    0.48393935    0.21810000
opls_145-97    C    0.17186996    0.44256008    0.39384018    -0.11760000
opls_145-98    C    0.19268990    0.44633008    0.24456031    -0.08470000
opls_700-99    C    0.20561011    0.49258010    0.18263025    0.09820000
opls_145-100    C    0.19709986    0.53505010    0.27318983    -0.09120000
opls_145-101    C    0.17625991    0.53130012    0.42254053    -0.11410000
opls_145-102    C    0.24148004    0.54256008    0.96324046    -0.08470000
opls_700-103    C    0.22825986    0.49640986    0.02506952    0.09820000
opls_145-104    C    0.23704005    0.45389011    0.93518941    -0.09100000
opls_142-105    C    0.13519994    0.51619008    0.73115064    0.03960000
opls_700-106    C    0.10815995    0.50967007    0.87841046    0.09880000
opls_145-107    C    0.09945012    0.55068000    0.97368041    -0.08420000
opls_145-108    C    0.06774995    0.54686996    0.10240044    -0.07830000
opls_700-109    C    0.04459006    0.50183010    0.13906947    0.10890000
opls_145-110    C    0.05508996    0.46044014    0.04499974    -0.08150000
opls_145-111    C    0.08669004    0.46423988    0.91645942    -0.07810000
opls_145-112    C    0.66376005    0.98485994    0.98393935    0.21810000
opls_145-113    C    0.67186996    0.94256008    0.89384018    -0.11770000
opls_145-114    C    0.69268990    0.94633008    0.74456031    -0.08470000
opls_700-115    C    0.70561011    0.99258010    0.68263025    0.09820000
opls_145-116    C    0.69709986    0.03505010    0.77318983    -0.09120000
opls_145-117    C    0.67625991    0.03130012    0.92254053    -0.11410000
opls_145-118    C    0.74148004    0.04256008    0.46324046    -0.08470000
opls_700-119    C    0.72825986    0.99640986    0.52506952    0.09820000
opls_145-120    C    0.73704005    0.95389011    0.43518941    -0.09100000
opls_142-121    C    0.63519994    0.01619008    0.23115064    0.03960000
opls_700-122    C    0.60815995    0.00967007    0.37841046    0.09880000
opls_145-123    C    0.59945012    0.05068000    0.47368041    -0.08420000
opls_145-124    C    0.56774995    0.04686996    0.60240044    -0.07830000
opls_700-125    C    0.54459006    0.00183010    0.63906947    0.10890000
opls_145-126    C    0.55508996    0.96044014    0.54499974    -0.08150000
opls_145-127    C    0.58669004    0.96423988    0.41645942    -0.07810000
opls_145-128    C    0.48485994    0.83623995    0.51606065    0.21810000
opls_145-129    C    0.44256008    0.82813004    0.60615982    -0.11770000
opls_145-130    C    0.44633008    0.80731010    0.75543969    -0.08470000
opls_700-131    C    0.49258010    0.79438989    0.81736975    0.09820000
opls_145-132    C    0.53505010    0.80290014    0.72681017    -0.09110000
opls_145-133    C    0.53130012    0.82374009    0.57745947    -0.11410000
opls_145-134    C    0.54256008    0.75851996    0.03675954    -0.08470000
opls_700-135    C    0.49640986    0.77174014    0.97493048    0.09820000
opls_145-136    C    0.45389011    0.76295995    0.06481059    -0.09100000
opls_142-137    C    0.51619008    0.86480006    0.26884936    0.03960000
opls_700-138    C    0.50967007    0.89184005    0.12158954    0.09880000
opls_145-139    C    0.55068000    0.90054988    0.02631959    -0.08420000
opls_145-140    C    0.54686996    0.93225005    0.89759956    -0.07830000
opls_700-141    C    0.50183010    0.95540994    0.86093053    0.10890000
opls_145-142    C    0.46044014    0.94491004    0.95500026    -0.08140000
opls_145-143    C    0.46423988    0.91330996    0.08354058    -0.07810000
opls_145-144    C    0.98485994    0.33623995    0.01606065    0.21810000
opls_145-145    C    0.94256008    0.32813004    0.10615982    -0.11770000
opls_145-146    C    0.94633008    0.30731010    0.25543969    -0.08470000
opls_700-147    C    0.99258010    0.29438989    0.31736975    0.09820000
opls_145-148    C    0.03505010    0.30290014    0.22681017    -0.09120000
opls_145-149    C    0.03130012    0.32374009    0.07745947    -0.11410000
opls_145-150    C    0.04256008    0.25851996    0.53675954    -0.08470000
opls_700-151    C    0.99640986    0.27174014    0.47493048    0.09820000
opls_145-152    C    0.95389011    0.26295995    0.56481059    -0.09100000
opls_142-153    C    0.01619008    0.36480006    0.76884936    0.03960000
opls_700-154    C    0.00967007    0.39184005    0.62158954    0.09890000
opls_145-155    C    0.05068000    0.40054988    0.52631959    -0.08420000
opls_145-156    C    0.04686996    0.43225005    0.39759956    -0.07830000
opls_700-157    C    0.00183010    0.45540994    0.36093053    0.10900000
opls_145-158    C    0.96044014    0.44491004    0.45500026    -0.08150000
opls_145-159    C    0.96423988    0.41330996    0.58354058    -0.07810000
opls_145-160    C    0.01514006    0.66376005    0.01606065    0.21810000
opls_145-161    C    0.05743992    0.67186996    0.10615982    -0.11750000
opls_145-162    C    0.05366992    0.69268990    0.25543969    -0.08470000
opls_700-163    C    0.00741990    0.70561011    0.31736975    0.09820000
opls_145-164    C    0.96494990    0.69709986    0.22681017    -0.09120000
opls_145-165    C    0.96869988    0.67625991    0.07745947    -0.11410000
opls_145-166    C    0.95743992    0.74148004    0.53675954    -0.08470000
opls_700-167    C    0.00359014    0.72825986    0.47493048    0.09820000
opls_145-168    C    0.04610989    0.73704005    0.56481059    -0.09090000
opls_142-169    C    0.98380992    0.63519994    0.76884936    0.03960000
opls_700-170    C    0.99032993    0.60815995    0.62158954    0.09880000
opls_145-171    C    0.94932000    0.59945012    0.52631959    -0.08410000
opls_145-172    C    0.95313004    0.56774995    0.39759956    -0.07830000
opls_700-173    C    0.99816990    0.54459006    0.36093053    0.10890000
opls_145-174    C    0.03955986    0.55508996    0.45500026    -0.08150000
opls_145-175    C    0.03576012    0.58669004    0.58354058    -0.07810000
opls_145-176    C    0.51514006    0.16376005    0.51606065    0.21810000
opls_145-177    C    0.55743992    0.17186996    0.60615982    -0.11770000
opls_145-178    C    0.55366992    0.19268990    0.75543969    -0.08470000
opls_700-179    C    0.50741990    0.20561011    0.81736975    0.09820000
opls_145-180    C    0.46494990    0.19709986    0.72681017    -0.09120000
opls_145-181    C    0.46869988    0.17625991    0.57745947    -0.11410000
opls_145-182    C    0.45743992    0.24148004    0.03675954    -0.08470000
opls_700-183    C    0.50359014    0.22825986    0.97493048    0.09820000
opls_145-184    C    0.54610989    0.23704005    0.06481059    -0.09100000
opls_142-185    C    0.48380992    0.13519994    0.26884936    0.03960000
opls_700-186    C    0.49032993    0.10815995    0.12158954    0.09880000
opls_145-187    C    0.44932000    0.09945012    0.02631959    -0.08420000
opls_145-188    C    0.45313004    0.06774995    0.89759956    -0.07830000
opls_700-189    C    0.49816990    0.04459006    0.86093053    0.10890000
opls_145-190    C    0.53955986    0.05508996    0.95500026    -0.08150000
opls_145-191    C    0.53576012    0.08669004    0.08354058    -0.07810000
opls_145-192    C    0.66376005    0.48485994    0.26606065    0.21810000
opls_145-193    C    0.67186996    0.44256008    0.35615982    -0.11760000
opls_145-194    C    0.69268990    0.44633008    0.50543969    -0.08470000
opls_700-195    C    0.70561011    0.49258010    0.56736975    0.09820000
opls_145-196    C    0.69709986    0.53505010    0.47681017    -0.09110000
opls_145-197    C    0.67625991    0.53130012    0.32745947    -0.11410000
opls_145-198    C    0.74148004    0.54256008    0.78675954    -0.08470000
opls_700-199    C    0.72825986    0.49640986    0.72493048    0.09820000
opls_145-200    C    0.73704005    0.45389011    0.81481059    -0.09100000
opls_142-201    C    0.63519994    0.51619008    0.01884936    0.03960000
opls_700-202    C    0.60815995    0.50967007    0.87158954    0.09890000
opls_145-203    C    0.59945012    0.55068000    0.77631959    -0.08420000
opls_145-204    C    0.56774995    0.54686996    0.64759956    -0.07820000
opls_700-205    C    0.54459006    0.50183010    0.61093053    0.10890000
opls_145-206    C    0.55508996    0.46044014    0.70500026    -0.08150000
opls_145-207    C    0.58669004    0.46423988    0.83354058    -0.07810000
opls_145-208    C    0.16376005    0.98485994    0.76606065    0.21810000
opls_145-209    C    0.17186996    0.94256008    0.85615982    -0.11770000
opls_145-210    C    0.19268990    0.94633008    0.00543969    -0.08450000
opls_700-211    C    0.20561011    0.99258010    0.06736975    0.09820000
opls_145-212    C    0.19709986    0.03505010    0.97681017    -0.09120000
opls_145-213    C    0.17625991    0.03130012    0.82745947    -0.11410000
opls_145-214    C    0.24148004    0.04256008    0.28675954    -0.08470000
opls_700-215    C    0.22825986    0.99640986    0.22493048    0.09820000
opls_145-216    C    0.23704005    0.95389011    0.31481059    -0.09100000
opls_142-217    C    0.13519994    0.01619008    0.51884936    0.03960000
opls_700-218    C    0.10815995    0.00967007    0.37158954    0.09880000
opls_145-219    C    0.09945012    0.05068000    0.27631959    -0.08420000
opls_145-220    C    0.06774995    0.04686996    0.14759956    -0.07830000
opls_700-221    C    0.04459006    0.00183010    0.11093053    0.10890000
opls_145-222    C    0.05508996    0.96044014    0.20500026    -0.08150000
opls_145-223    C    0.08669004    0.96423988    0.33354058    -0.07810000
opls_145-224    C    0.83623995    0.01514006    0.76606065    0.21820000
opls_145-225    C    0.82813004    0.05743992    0.85615982    -0.11770000
opls_145-226    C    0.80731010    0.05366992    0.00543969    -0.08470000
opls_700-227    C    0.79438989    0.00741990    0.06736975    0.09830000
opls_145-228    C    0.80290014    0.96494990    0.97681017    -0.09110000
opls_145-229    C    0.82374009    0.96869988    0.82745947    -0.11400000
opls_145-230    C    0.75851996    0.95743992    0.28675954    -0.08470000
opls_700-231    C    0.77174014    0.00359014    0.22493048    0.09820000
opls_145-232    C    0.76295995    0.04610989    0.31481059    -0.09100000
opls_142-233    C    0.86480006    0.98380992    0.51884936    0.03960000
opls_700-234    C    0.89184005    0.99032993    0.37158954    0.09880000
opls_145-235    C    0.90054988    0.94932000    0.27631959    -0.08420000
opls_145-236    C    0.93225005    0.95313004    0.14759956    -0.07830000
opls_700-237    C    0.95540994    0.99816990    0.11093053    0.10890000
opls_145-238    C    0.94491004    0.03955986    0.20500026    -0.08140000
opls_145-239    C    0.91330996    0.03576012    0.33354058    -0.07810000
opls_145-240    C    0.33623995    0.51514006    0.26606065    0.21820000
opls_145-241    C    0.32813004    0.55743992    0.35615982    -0.11770000
opls_145-242    C    0.30731010    0.55366992    0.50543969    -0.08470000
opls_700-243    C    0.29438989    0.50741990    0.56736975    0.09820000
opls_145-244    C    0.30290014    0.46494990    0.47681017    -0.09120000
opls_145-245    C    0.32374009    0.46869988    0.32745947    -0.11410000
opls_145-246    C    0.25851996    0.45743992    0.78675954    -0.08470000
opls_700-247    C    0.27174014    0.50359014    0.72493048    0.09820000
opls_145-248    C    0.26295995    0.54610989    0.81481059    -0.09100000
opls_142-249    C    0.36480006    0.48380992    0.01884936    0.03960000
opls_700-250    C    0.39184005    0.49032993    0.87158954    0.09880000
opls_145-251    C    0.40054988    0.44932000    0.77631959    -0.08420000
opls_145-252    C    0.43225005    0.45313004    0.64759956    -0.07830000
opls_700-253    C    0.45540994    0.49816990    0.61093053    0.10900000
opls_145-254    C    0.44491004    0.53955986    0.70500026    -0.08150000
opls_145-255    C    0.41330996    0.53576012    0.83354058    -0.07810000
opls_701-256    C    0.50000000    0.50000000    0.50000000    0.04770000
opls_701-257    C    0.00000000    0.00000000    0.00000000    0.04770000
opls_701-258    C    0.50000000    0.00000000    0.75000000    0.04770000
opls_701-259    C    0.00000000    0.50000000    0.25000000    0.04770000
opls_750-260    N    0.52017998    0.64072998    0.88401936    -0.23650000
opls_750-261    N    0.02017998    0.14072998    0.38401936    -0.23660000
opls_750-262    N    0.97982002    0.85927002    0.38401936    -0.23660000
opls_750-263    N    0.47982002    0.35927002    0.88401936    -0.23650000
opls_750-264    N    0.35927002    0.02017998    0.13401936    -0.23660000
opls_750-265    N    0.85927002    0.52017998    0.63401936    -0.23660000
opls_750-266    N    0.14072998    0.47982002    0.63401936    -0.23660000
opls_750-267    N    0.64072998    0.97982002    0.13401936    -0.23660000
opls_750-268    N    0.47982002    0.85927002    0.36598064    -0.23660000
opls_750-269    N    0.97982002    0.35927002    0.86598064    -0.23660000
opls_750-270    N    0.02017998    0.64072998    0.86598064    -0.23660000
opls_750-271    N    0.52017998    0.14072998    0.36598064    -0.23660000
opls_750-272    N    0.64072998    0.47982002    0.11598064    -0.23650000
opls_750-273    N    0.14072998    0.97982002    0.61598064    -0.23640000
opls_750-274    N    0.85927002    0.02017998    0.61598064    -0.23660000
opls_750-275    N    0.35927002    0.52017998    0.11598064    -0.23650000
opls_146-276    H    0.58784986    0.66240006    0.69079044    0.04420000
opls_146-277    H    0.58089006    0.70093992    0.41529986    0.04420000
opls_146-278    H    0.43688992    0.70850996    0.45896952    0.04420000
opls_146-279    H    0.44145001    0.66783002    0.75123957    0.04430000
opls_146-280    H    0.43105991    0.73221002    0.29589039    0.04420000
opls_146-281    H    0.57645007    0.72742002    0.23245973    0.04420000
opls_144-282    H    0.45337996    0.64832003    0.95808935    0.02610000
opls_146-283    H    0.42206012    0.61721007    0.18733013    0.04420000
opls_146-284    H    0.42598997    0.55825003    0.42937982    0.04420000
opls_146-285    H    0.56736992    0.53830996    0.33223936    0.04420000
opls_146-286    H    0.56272004    0.59727001    0.09095965    0.04420000
opls_146-287    H    0.08784986    0.16240006    0.19079044    0.04420000
opls_146-288    H    0.08089006    0.20093992    0.91529986    0.04420000
opls_146-289    H    0.93688992    0.20850996    0.95896952    0.04420000
opls_146-290    H    0.94145001    0.16783002    0.25123957    0.04420000
opls_146-291    H    0.93105991    0.23221002    0.79589039    0.04420000
opls_146-292    H    0.07645007    0.22742002    0.73245973    0.04420000
opls_144-293    H    0.95337996    0.14832003    0.45808935    0.02610000
opls_146-294    H    0.92206012    0.11721007    0.68733013    0.04420000
opls_146-295    H    0.92598997    0.05825003    0.92937982    0.04420000
opls_146-296    H    0.06736992    0.03830996    0.83223936    0.04420000
opls_146-297    H    0.06272004    0.09727001    0.59095965    0.04420000
opls_146-298    H    0.91215014    0.83759994    0.19079044    0.04420000
opls_146-299    H    0.91910994    0.79906008    0.91529986    0.04420000
opls_146-300    H    0.06311008    0.79149004    0.95896952    0.04420000
opls_146-301    H    0.05854999    0.83216998    0.25123957    0.04420000
opls_146-302    H    0.06894009    0.76778998    0.79589039    0.04420000
opls_146-303    H    0.92354993    0.77257998    0.73245973    0.04420000
opls_144-304    H    0.04662004    0.85167997    0.45808935    0.02610000
opls_146-305    H    0.07793988    0.88278993    0.68733013    0.04420000
opls_146-306    H    0.07401003    0.94174997    0.92937982    0.04420000
opls_146-307    H    0.93263008    0.96169004    0.83223936    0.04420000
opls_146-308    H    0.93727996    0.90272999    0.59095965    0.04430000
opls_146-309    H    0.41215014    0.33759994    0.69079044    0.04420000
opls_146-310    H    0.41910994    0.29906008    0.41529986    0.04420000
opls_146-311    H    0.56311008    0.29149004    0.45896952    0.04420000
opls_146-312    H    0.55854999    0.33216998    0.75123957    0.04420000
opls_146-313    H    0.56894009    0.26778998    0.29589039    0.04420000
opls_146-314    H    0.42354993    0.27257998    0.23245973    0.04420000
opls_144-315    H    0.54662004    0.35167997    0.95808935    0.02610000
opls_146-316    H    0.57793988    0.38278993    0.18733013    0.04420000
opls_146-317    H    0.57401003    0.44174997    0.42937982    0.04420000
opls_146-318    H    0.43263008    0.46169004    0.33223936    0.04420000
opls_146-319    H    0.43727996    0.40272999    0.09095965    0.04420000
opls_146-320    H    0.33759994    0.08784986    0.94079044    0.04420000
opls_146-321    H    0.29906008    0.08089006    0.66529986    0.04420000
opls_146-322    H    0.29149004    0.93688992    0.70896952    0.04420000
opls_146-323    H    0.33216998    0.94145001    0.00123957    0.04420000
opls_146-324    H    0.26778998    0.93105991    0.54589039    0.04420000
opls_146-325    H    0.27257998    0.07645007    0.48245973    0.04420000
opls_144-326    H    0.35167997    0.95337996    0.20808935    0.02610000
opls_146-327    H    0.38278993    0.92206012    0.43733013    0.04420000
opls_146-328    H    0.44174997    0.92598997    0.67937982    0.04420000
opls_146-329    H    0.46169004    0.06736992    0.58223936    0.04420000
opls_146-330    H    0.40272999    0.06272004    0.34095965    0.04420000
opls_146-331    H    0.83759994    0.58784986    0.44079044    0.04420000
opls_146-332    H    0.79906008    0.58089006    0.16529986    0.04420000
opls_146-333    H    0.79149004    0.43688992    0.20896952    0.04420000
opls_146-334    H    0.83216998    0.44145001    0.50123957    0.04420000
opls_146-335    H    0.76778998    0.43105991    0.04589039    0.04420000
opls_146-336    H    0.77257998    0.57645007    0.98245973    0.04420000
opls_144-337    H    0.85167997    0.45337996    0.70808935    0.02610000
opls_146-338    H    0.88278993    0.42206012    0.93733013    0.04420000
opls_146-339    H    0.94174997    0.42598997    0.17937982    0.04420000
opls_146-340    H    0.96169004    0.56736992    0.08223936    0.04430000
opls_146-341    H    0.90272999    0.56272004    0.84095965    0.04420000
opls_146-342    H    0.16240006    0.41215014    0.44079044    0.04420000
opls_146-343    H    0.20093992    0.41910994    0.16529986    0.04420000
opls_146-344    H    0.20850996    0.56311008    0.20896952    0.04420000
opls_146-345    H    0.16783002    0.55854999    0.50123957    0.04420000
opls_146-346    H    0.23221002    0.56894009    0.04589039    0.04420000
opls_146-347    H    0.22742002    0.42354993    0.98245973    0.04420000
opls_144-348    H    0.14832003    0.54662004    0.70808935    0.02610000
opls_146-349    H    0.11721007    0.57793988    0.93733013    0.04420000
opls_146-350    H    0.05825003    0.57401003    0.17937982    0.04420000
opls_146-351    H    0.03830996    0.43263008    0.08223936    0.04420000
opls_146-352    H    0.09727001    0.43727996    0.84095965    0.04420000
opls_146-353    H    0.66240006    0.91215014    0.94079044    0.04420000
opls_146-354    H    0.70093992    0.91910994    0.66529986    0.04420000
opls_146-355    H    0.70850996    0.06311008    0.70896952    0.04420000
opls_146-356    H    0.66783002    0.05854999    0.00123957    0.04420000
opls_146-357    H    0.73221002    0.06894009    0.54589039    0.04420000
opls_146-358    H    0.72742002    0.92354993    0.48245973    0.04430000
opls_144-359    H    0.64832003    0.04662004    0.20808935    0.02610000
opls_146-360    H    0.61721007    0.07793988    0.43733013    0.04420000
opls_146-361    H    0.55825003    0.07401003    0.67937982    0.04420000
opls_146-362    H    0.53830996    0.93263008    0.58223936    0.04420000
opls_146-363    H    0.59727001    0.93727996    0.34095965    0.04420000
opls_146-364    H    0.41215014    0.83759994    0.55920956    0.04420000
opls_146-365    H    0.41910994    0.79906008    0.83470014    0.04420000
opls_146-366    H    0.56311008    0.79149004    0.79103048    0.04420000
opls_146-367    H    0.55854999    0.83216998    0.49876043    0.04420000
opls_146-368    H    0.56894009    0.76778998    0.95410961    0.04420000
opls_146-369    H    0.42354993    0.77257998    0.01754027    0.04420000
opls_144-370    H    0.54662004    0.85167997    0.29191065    0.02610000
opls_146-371    H    0.57793988    0.88278993    0.06266987    0.04420000
opls_146-372    H    0.57401003    0.94174997    0.82062018    0.04420000
opls_146-373    H    0.43263008    0.96169004    0.91776064    0.04420000
opls_146-374    H    0.43727996    0.90272999    0.15904035    0.04420000
opls_146-375    H    0.91215014    0.33759994    0.05920956    0.04420000
opls_146-376    H    0.91910994    0.29906008    0.33470014    0.04420000
opls_146-377    H    0.06311008    0.29149004    0.29103048    0.04420000
opls_146-378    H    0.05854999    0.33216998    0.99876043    0.04420000
opls_146-379    H    0.06894009    0.26778998    0.45410961    0.04420000
opls_146-380    H    0.92354993    0.27257998    0.51754027    0.04420000
opls_144-381    H    0.04662004    0.35167997    0.79191065    0.02610000
opls_146-382    H    0.07793988    0.38278993    0.56266987    0.04420000
opls_146-383    H    0.07401003    0.44174997    0.32062018    0.04420000
opls_146-384    H    0.93263008    0.46169004    0.41776064    0.04420000
opls_146-385    H    0.93727996    0.40272999    0.65904035    0.04420000
opls_146-386    H    0.08784986    0.66240006    0.05920956    0.04420000
opls_146-387    H    0.08089006    0.70093992    0.33470014    0.04420000
opls_146-388    H    0.93688992    0.70850996    0.29103048    0.04430000
opls_146-389    H    0.94145001    0.66783002    0.99876043    0.04420000
opls_146-390    H    0.93105991    0.73221002    0.45410961    0.04420000
opls_146-391    H    0.07645007    0.72742002    0.51754027    0.04420000
opls_144-392    H    0.95337996    0.64832003    0.79191065    0.02610000
opls_146-393    H    0.92206012    0.61721007    0.56266987    0.04420000
opls_146-394    H    0.92598997    0.55825003    0.32062018    0.04420000
opls_146-395    H    0.06736992    0.53830996    0.41776064    0.04420000
opls_146-396    H    0.06272004    0.59727001    0.65904035    0.04420000
opls_146-397    H    0.58784986    0.16240006    0.55920956    0.04420000
opls_146-398    H    0.58089006    0.20093992    0.83470014    0.04420000
opls_146-399    H    0.43688992    0.20850996    0.79103048    0.04420000
opls_146-400    H    0.44145001    0.16783002    0.49876043    0.04420000
opls_146-401    H    0.43105991    0.23221002    0.95410961    0.04420000
opls_146-402    H    0.57645007    0.22742002    0.01754027    0.04420000
opls_144-403    H    0.45337996    0.14832003    0.29191065    0.02620000
opls_146-404    H    0.42206012    0.11721007    0.06266987    0.04430000
opls_146-405    H    0.42598997    0.05825003    0.82062018    0.04420000
opls_146-406    H    0.56736992    0.03830996    0.91776064    0.04420000
opls_146-407    H    0.56272004    0.09727001    0.15904035    0.04420000
opls_146-408    H    0.66240006    0.41215014    0.30920956    0.04420000
opls_146-409    H    0.70093992    0.41910994    0.58470014    0.04420000
opls_146-410    H    0.70850996    0.56311008    0.54103048    0.04420000
opls_146-411    H    0.66783002    0.55854999    0.24876043    0.04420000
opls_146-412    H    0.73221002    0.56894009    0.70410961    0.04420000
opls_146-413    H    0.72742002    0.42354993    0.76754027    0.04420000
opls_144-414    H    0.64832003    0.54662004    0.04191065    0.02610000
opls_146-415    H    0.61721007    0.57793988    0.81266987    0.04420000
opls_146-416    H    0.55825003    0.57401003    0.57062018    0.04420000
opls_146-417    H    0.53830996    0.43263008    0.66776064    0.04420000
opls_146-418    H    0.59727001    0.43727996    0.90904035    0.04420000
opls_146-419    H    0.16240006    0.91215014    0.80920956    0.04420000
opls_146-420    H    0.20093992    0.91910994    0.08470014    0.04430000
opls_146-421    H    0.20850996    0.06311008    0.04103048    0.04420000
opls_146-422    H    0.16783002    0.05854999    0.74876043    0.04420000
opls_146-423    H    0.23221002    0.06894009    0.20410961    0.04420000
opls_146-424    H    0.22742002    0.92354993    0.26754027    0.04420000
opls_144-425    H    0.14832003    0.04662004    0.54191065    0.02610000
opls_146-426    H    0.11721007    0.07793988    0.31266987    0.04420000
opls_146-427    H    0.05825003    0.07401003    0.07062018    0.04420000
opls_146-428    H    0.03830996    0.93263008    0.16776064    0.04420000
opls_146-429    H    0.09727001    0.93727996    0.40904035    0.04420000
opls_146-430    H    0.83759994    0.08784986    0.80920956    0.04420000
opls_146-431    H    0.79906008    0.08089006    0.08470014    0.04420000
opls_146-432    H    0.79149004    0.93688992    0.04103048    0.04420000
opls_146-433    H    0.83216998    0.94145001    0.74876043    0.04430000
opls_146-434    H    0.76778998    0.93105991    0.20410961    0.04420000
opls_146-435    H    0.77257998    0.07645007    0.26754027    0.04420000
opls_144-436    H    0.85167997    0.95337996    0.54191065    0.02610000
opls_146-437    H    0.88278993    0.92206012    0.31266987    0.04420000
opls_146-438    H    0.94174997    0.92598997    0.07062018    0.04420000
opls_146-439    H    0.96169004    0.06736992    0.16776064    0.04420000
opls_146-440    H    0.90272999    0.06272004    0.40904035    0.04420000
opls_146-441    H    0.33759994    0.58784986    0.30920956    0.04420000
opls_146-442    H    0.29906008    0.58089006    0.58470014    0.04420000
opls_146-443    H    0.29149004    0.43688992    0.54103048    0.04420000
opls_146-444    H    0.33216998    0.44145001    0.24876043    0.04420000
opls_146-445    H    0.26778998    0.43105991    0.70410961    0.04420000
opls_146-446    H    0.27257998    0.57645007    0.76754027    0.04420000
opls_144-447    H    0.35167997    0.45337996    0.04191065    0.02610000
opls_146-448    H    0.38278993    0.42206012    0.81266987    0.04420000
opls_146-449    H    0.44174997    0.42598997    0.57062018    0.04420000
opls_146-450    H    0.46169004    0.56736992    0.66776064    0.04420000
opls_146-451    H    0.40272999    0.56272004    0.90904035    0.04420000
