#======================================================================
# Crystal Data Generated By AuToFF
#----------------------------------------------------------------------

data_AuToFF_phase_1

_cell_length_a                         37.4583
_cell_length_b                         37.4583
_cell_length_c                         9.4002
_cell_angle_alpha                      90.00
_cell_angle_beta                       90.00
_cell_angle_gamma                      120.00
_symmetry_space_group_name_H-M_alt     'P 1'
_symmetry_space_group_IT_number        1

loop_
_space_group_symop_operation_xyz
   'x, y, z'

loop_
   _atom_site_label
   _atom_site_type_symbol
   _atom_site_fract_x
   _atom_site_fract_y
   _atom_site_fract_z
   _atom_site_charge
opls_700-0    C    0.97800994    0.02164006    0.31111040    -0.23830000
opls_727-1    C    0.95686988    0.97824989    0.31232952    0.19440000
opls_700-2    C    0.95475005    0.04428998    0.29680007    0.06400000
opls_145-3    C    0.92043997    0.03430997    0.38233974    -0.18150000
opls_700-4    C    0.89631994    0.05320002    0.36247952    0.01860000
opls_145-5    C    0.90652997    0.08250996    0.25157975    0.17370000
opls_700-6    C    0.94118019    0.09257012    0.16259016    0.01490000
opls_145-7    C    0.96544999    0.07423002    0.19075020    -0.18230000
opls_515-8    C    0.86044990    0.04288985    0.46384013    0.09570000
opls_135-9    C    0.87611987    0.05536988    0.61649007    -0.41830000
opls_135-10    C    0.82795006    0.99690011    0.46022957    -0.41830000
opls_515-11    C    0.95148010    0.12045004    0.03220995    0.09260000
opls_135-12    C    0.99122002    0.16167990    0.05479032    -0.41790000
opls_135-13    C    0.95598003    0.09990986    0.89762984    -0.41830000
opls_142-14    C    0.89123991    0.13834008    0.22274952    0.06870000
opls_700-15    C    0.86111995    0.15217985    0.19430970    -0.12280000
opls_727-16    C    0.87357004    0.18781998    0.11301036    0.13620000
opls_727-17    C    0.84579994    0.20236999    0.08441948    0.12620000
opls_700-18    C    0.97836013    0.95637001    0.31111040    -0.23830000
opls_727-19    C    0.02175013    0.97862012    0.31232952    0.19440000
opls_700-20    C    0.95571005    0.91046010    0.29680007    0.06400000
opls_145-21    C    0.96568981    0.88612983    0.38233974    -0.18160000
opls_700-22    C    0.94680010    0.84312006    0.36247952    0.01860000
opls_145-23    C    0.91749001    0.82402009    0.25157975    0.17370000
opls_700-24    C    0.90742993    0.84860992    0.16259016    0.01490000
opls_145-25    C    0.92577001    0.89121987    0.19075020    -0.18230000
opls_515-26    C    0.95711008    0.81756014    0.46384013    0.09580000
opls_135-27    C    0.94462991    0.82075004    0.61649007    -0.41830000
opls_135-28    C    0.00310000    0.83105003    0.46022957    -0.41830000
opls_515-29    C    0.87954994    0.83102999    0.03220995    0.09260000
opls_135-30    C    0.83831985    0.82953985    0.05479032    -0.41830000
opls_135-31    C    0.90009000    0.85606988    0.89762984    -0.41830000
opls_142-32    C    0.86166002    0.75290014    0.22274952    0.06870000
opls_700-33    C    0.84781994    0.70893999    0.19430970    -0.21910000
opls_727-34    C    0.81218006    0.68574999    0.11301036    0.12640000
opls_727-35    C    0.79763014    0.64343012    0.08441948    0.14080000
opls_700-36    C    0.04362992    0.02198994    0.31111040    -0.23820000
opls_727-37    C    0.02137999    0.04312999    0.31232952    0.19440000
opls_700-38    C    0.08953990    0.04524991    0.29680007    0.06410000
opls_145-39    C    0.11387006    0.07955989    0.38233974    -0.18160000
opls_700-40    C    0.15687996    0.10367992    0.36247952    0.01860000
opls_145-41    C    0.17598003    0.09346994    0.25157975    0.17370000
opls_700-42    C    0.15138989    0.05881996    0.16259016    0.01490000
opls_145-43    C    0.10878001    0.03455011    0.19075020    -0.18230000
opls_515-44    C    0.18244002    0.13955001    0.46384013    0.09570000
opls_135-45    C    0.17924996    0.12388008    0.61649007    -0.41820000
opls_135-46    C    0.16894994    0.17204986    0.46022957    -0.41830000
opls_515-47    C    0.16896997    0.04851997    0.03220995    0.09260000
opls_135-48    C    0.17045998    0.00877994    0.05479032    -0.41830000
opls_135-49    C    0.14393008    0.04401995    0.89762984    -0.41830000
opls_142-50    C    0.24709995    0.10876009    0.22274952    0.06870000
opls_700-51    C    0.29105996    0.13887985    0.19430970    -0.11930000
opls_727-52    C    0.31424990    0.12643003    0.11301036    0.13620000
opls_727-53    C    0.35656992    0.15419990    0.08441948    0.13620000
opls_700-54    C    0.02199006    0.97835994    0.68888960    -0.23830000
opls_727-55    C    0.04313012    0.02175011    0.68767048    0.19440000
opls_700-56    C    0.04524995    0.95571002    0.70319993    0.06410000
opls_145-57    C    0.07956003    0.96569003    0.61766026    -0.18160000
opls_700-58    C    0.10368006    0.94679998    0.63752048    0.01860000
opls_145-59    C    0.09347003    0.91749004    0.74842025    0.17390000
opls_700-60    C    0.05881981    0.90742988    0.83740984    0.01490000
opls_145-61    C    0.03455001    0.92576998    0.80924980    -0.18230000
opls_515-62    C    0.13954995    0.95710984    0.53615987    0.09570000
opls_135-63    C    0.12388013    0.94463012    0.38350993    -0.41820000
opls_135-64    C    0.17204994    0.00309989    0.53977043    -0.41830000
opls_515-65    C    0.04851990    0.87954996    0.96779005    0.09260000
opls_135-66    C    0.00877998    0.83832010    0.94520968    -0.41820000
opls_135-67    C    0.04401997    0.90009014    0.10237016    -0.41830000
opls_142-68    C    0.10876009    0.86165992    0.77725048    0.06870000
opls_700-69    C    0.13887990    0.84781984    0.80569030    -0.20990000
opls_727-70    C    0.12642996    0.81218002    0.88698964    0.12110000
opls_727-71    C    0.15420006    0.79763001    0.91558052    0.14080000
opls_700-72    C    0.02163987    0.04362999    0.68888960    -0.23820000
opls_727-73    C    0.97824987    0.02137988    0.68767048    0.19440000
opls_700-74    C    0.04428995    0.08953990    0.70319993    0.06400000
opls_145-75    C    0.03431004    0.11386986    0.61766026    -0.18160000
opls_700-76    C    0.05319990    0.15687994    0.63752048    0.01860000
opls_145-77    C    0.08250999    0.17597991    0.74842025    0.17370000
opls_700-78    C    0.09257007    0.15139008    0.83740984    0.01490000
opls_145-79    C    0.07422999    0.10878013    0.80924980    -0.18220000
opls_515-80    C    0.04288992    0.18243986    0.53615987    0.09570000
opls_135-81    C    0.05537009    0.17924996    0.38350993    -0.41820000
opls_135-82    C    0.99690000    0.16894997    0.53977043    -0.41830000
opls_515-83    C    0.12045006    0.16897001    0.96779005    0.09270000
opls_135-84    C    0.16168015    0.17046015    0.94520968    -0.41830000
opls_135-85    C    0.09991000    0.14393012    0.10237016    -0.41820000
opls_142-86    C    0.13833998    0.24709986    0.77725048    0.06870000
opls_700-87    C    0.15218006    0.29106001    0.80569030    -0.12470000
opls_727-88    C    0.18781994    0.31425001    0.88698964    0.12720000
opls_727-89    C    0.20236986    0.35656988    0.91558052    0.12650000
opls_700-90    C    0.95637008    0.97801006    0.68888960    -0.23830000
opls_727-91    C    0.97862001    0.95687001    0.68767048    0.19440000
opls_700-92    C    0.91046010    0.95475009    0.70319993    0.06400000
opls_145-93    C    0.88612994    0.92044011    0.61766026    -0.18160000
opls_700-94    C    0.84312004    0.89632008    0.63752048    0.01860000
opls_145-95    C    0.82401997    0.90653006    0.74842025    0.17370000
opls_700-96    C    0.84861011    0.94118004    0.83740984    0.01490000
opls_145-97    C    0.89121999    0.96544989    0.80924980    -0.18230000
opls_515-98    C    0.81755998    0.86044999    0.53615987    0.09580000
opls_135-99    C    0.82075004    0.87611992    0.38350993    -0.41820000
opls_135-100    C    0.83105006    0.82795014    0.53977043    -0.41830000
opls_515-101    C    0.83103003    0.95148003    0.96779005    0.09260000
opls_135-102    C    0.82954002    0.99122006    0.94520968    -0.41830000
opls_135-103    C    0.85606992    0.95598005    0.10237016    -0.41830000
opls_142-104    C    0.75290005    0.89123991    0.77725048    0.06870000
opls_700-105    C    0.70893988    0.86111985    0.80569030    -0.14400000
opls_727-106    C    0.68575010    0.87356997    0.88698964    0.12720000
opls_727-107    C    0.64343008    0.84580010    0.91558052    0.12640000
opls_700-108    C    0.64500986    0.35463985    0.64410970    -0.23830000
opls_727-109    C    0.62386995    0.31124999    0.64532989    0.19440000
opls_700-110    C    0.62175012    0.37729009    0.62980043    0.06410000
opls_145-111    C    0.58744005    0.36731007    0.71534010    -0.18160000
opls_700-112    C    0.56332001    0.38620012    0.69547988    0.01860000
opls_145-113    C    0.57353004    0.41551006    0.58458012    0.17370000
opls_700-114    C    0.60817984    0.42556992    0.49559052    0.01490000
opls_145-115    C    0.63245006    0.40723012    0.52374949    -0.18230000
opls_515-116    C    0.52744997    0.37588996    0.79684049    0.09570000
opls_135-117    C    0.54311994    0.38836998    0.94949044    -0.41830000
opls_135-118    C    0.49494998    0.32989990    0.79322993    -0.41820000
opls_515-119    C    0.61848017    0.45345014    0.36521031    0.09260000
opls_135-120    C    0.65822010    0.49468000    0.38778962    -0.41830000
opls_135-121    C    0.62298011    0.43290997    0.23063020    -0.41830000
opls_142-122    C    0.55823983    0.47133987    0.55574988    0.06870000
opls_700-123    C    0.52812002    0.48517995    0.52731006    -0.11940000
opls_727-124    C    0.54057011    0.52082008    0.44600966    0.13620000
opls_727-125    C    0.51280001    0.53537009    0.41741984    0.13620000
opls_700-126    C    0.64535994    0.28937011    0.64410970    -0.23810000
opls_727-127    C    0.68875005    0.31161991    0.64532989    0.19440000
opls_700-128    C    0.62270997    0.24345989    0.62980043    0.06400000
opls_145-129    C    0.63268988    0.21912993    0.71534010    -0.18160000
opls_700-130    C    0.61380002    0.17611986    0.69547988    0.01860000
opls_145-131    C    0.58448993    0.15701989    0.58458012    0.17370000
opls_700-132    C    0.57443000    0.18161002    0.49559052    0.01490000
opls_145-133    C    0.59277008    0.22421997    0.52374949    -0.18230000
opls_515-134    C    0.62411000    0.15055993    0.79684049    0.09570000
opls_135-135    C    0.61162999    0.15375014    0.94949044    -0.41830000
opls_135-136    C    0.67010007    0.16405013    0.79322993    -0.41820000
opls_515-137    C    0.54655001    0.16403009    0.36521031    0.09260000
opls_135-138    C    0.50531992    0.16253995    0.38778962    -0.41830000
opls_135-139    C    0.56709007    0.18906998    0.23063020    -0.41830000
opls_142-140    C    0.52865994    0.08589993    0.55574988    0.06870000
opls_700-141    C    0.51482001    0.04194010    0.52731006    -0.12280000
opls_727-142    C    0.47918014    0.01875009    0.44600966    0.13620000
opls_727-143    C    0.46463006    0.97642991    0.41741984    0.12620000
opls_700-144    C    0.71063000    0.35499004    0.64410970    -0.23830000
opls_727-145    C    0.68838006    0.37613009    0.64532989    0.19440000
opls_700-146    C    0.75653997    0.37825002    0.62980043    0.06400000
opls_145-147    C    0.78086987    0.41255999    0.71534010    -0.18160000
opls_700-148    C    0.82388004    0.43668002    0.69547988    0.01870000
opls_145-149    C    0.84298010    0.42647004    0.58458012    0.17370000
opls_700-150    C    0.81838996    0.39182006    0.49559052    0.01490000
opls_145-151    C    0.77577993    0.36754990    0.52374949    -0.18230000
opls_515-152    C    0.84944010    0.47255011    0.79684049    0.09570000
opls_135-153    C    0.84624987    0.45687987    0.94949044    -0.41820000
opls_135-154    C    0.83595002    0.50504996    0.79322993    -0.41820000
opls_515-155    C    0.83597004    0.38152007    0.36521031    0.09260000
opls_135-156    C    0.83746005    0.34178005    0.38778962    -0.41830000
opls_135-157    C    0.81093015    0.37702005    0.23063020    -0.41830000
opls_142-158    C    0.91409987    0.44175989    0.55574988    0.06880000
opls_700-159    C    0.95806004    0.47187995    0.52731006    -0.21900000
opls_727-160    C    0.98124997    0.45943013    0.44600966    0.12640000
opls_727-161    C    0.02356999    0.48720000    0.41741984    0.14080000
opls_700-162    C    0.68899013    0.31136004    0.02188996    -0.23820000
opls_727-163    C    0.71013004    0.35474990    0.02066977    0.19440000
opls_700-164    C    0.71225002    0.28871012    0.03620029    0.06400000
opls_145-165    C    0.74656010    0.29869013    0.95065956    -0.18160000
opls_700-166    C    0.77068014    0.27980009    0.97051978    0.01860000
opls_145-167    C    0.76047011    0.25049014    0.08141954    0.17370000
opls_700-168    C    0.72581989    0.24042998    0.17041020    0.01490000
opls_145-169    C    0.70155009    0.25877008    0.14225016    -0.18230000
opls_515-170    C    0.80655002    0.29010994    0.86916023    0.09570000
opls_135-171    C    0.79088005    0.27762991    0.71651029    -0.41830000
opls_135-172    C    0.83905002    0.33609999    0.87276973    -0.41820000
opls_515-173    C    0.71551998    0.21255006    0.30079041    0.09260000
opls_135-174    C    0.67577989    0.17131990    0.27821004    -0.41810000
opls_135-175    C    0.71101989    0.23308993    0.43537052    -0.41830000
opls_142-176    C    0.77575989    0.19466002    0.11024978    0.06870000
opls_700-177    C    0.80587997    0.18081994    0.13868960    -0.12270000
opls_727-178    C    0.79343004    0.14518012    0.21999000    0.13620000
opls_727-179    C    0.82120013    0.13063011    0.24857982    0.12630000
opls_700-180    C    0.68863994    0.37663009    0.02188996    -0.23830000
opls_727-181    C    0.64524994    0.35437998    0.02066977    0.19450000
opls_700-182    C    0.71129002    0.42254000    0.03620029    0.06400000
opls_145-183    C    0.70131011    0.44686996    0.95065956    -0.18160000
opls_700-184    C    0.72019997    0.48988004    0.97051978    0.01860000
opls_145-185    C    0.74951007    0.50898001    0.08141954    0.17370000
opls_700-186    C    0.75956999    0.48438987    0.17041020    0.01490000
opls_145-187    C    0.74122991    0.44177992    0.14225016    -0.18230000
opls_515-188    C    0.70989000    0.51543997    0.86916023    0.09570000
opls_135-189    C    0.72237016    0.51225006    0.71651029    -0.41830000
opls_135-190    C    0.66390007    0.50195007    0.87276973    -0.41820000
opls_515-191    C    0.78745014    0.50197011    0.30079041    0.09260000
opls_135-192    C    0.82868007    0.50345994    0.27821004    -0.41810000
opls_135-193    C    0.76690992    0.47692991    0.43537052    -0.41830000
opls_142-194    C    0.80534005    0.58009996    0.11024978    0.06870000
opls_700-195    C    0.81918014    0.62406011    0.13868960    -0.21910000
opls_727-196    C    0.85482001    0.64725011    0.21999000    0.12640000
opls_727-197    C    0.86936993    0.68956999    0.24857982    0.14080000
opls_700-198    C    0.62336999    0.31100986    0.02188996    -0.23830000
opls_727-199    C    0.64562008    0.28987011    0.02066977    0.19440000
opls_700-200    C    0.57746002    0.28774988    0.03620029    0.06400000
opls_145-201    C    0.55312985    0.25343991    0.95065956    -0.18160000
opls_700-202    C    0.51011995    0.22931987    0.97051978    0.01860000
opls_145-203    C    0.49101989    0.23952985    0.08141954    0.17370000
opls_700-204    C    0.51561019    0.27418014    0.17041020    0.01490000
opls_145-205    C    0.55822007    0.29844999    0.14225016    -0.18230000
opls_515-206    C    0.48456005    0.19345009    0.86916023    0.09570000
opls_135-207    C    0.48775012    0.20912002    0.71651029    -0.41830000
opls_135-208    C    0.49804998    0.16094993    0.87276973    -0.41830000
opls_515-209    C    0.49803011    0.28448013    0.30079041    0.09260000
opls_135-210    C    0.49653994    0.32421985    0.27821004    -0.41830000
opls_135-211    C    0.52306984    0.28897985    0.43537052    -0.41830000
opls_142-212    C    0.41990012    0.22424001    0.11024978    0.06870000
opls_700-213    C    0.37593995    0.19411995    0.13868960    -0.11940000
opls_727-214    C    0.35274991    0.20657007    0.21999000    0.13620000
opls_727-215    C    0.31043000    0.17879990    0.24857982    0.13620000
opls_700-216    C    0.31235984    0.62336991    0.97711006    -0.23820000
opls_727-217    C    0.35575010    0.64562002    0.97833025    0.19440000
opls_700-218    C    0.28971002    0.57746000    0.96279973    0.06400000
opls_145-219    C    0.29968993    0.55313004    0.04834046    -0.18150000
opls_700-220    C    0.28080007    0.51011996    0.02848025    0.01860000
opls_145-221    C    0.25148998    0.49101999    0.91758048    0.17370000
opls_700-222    C    0.24143005    0.51561013    0.82858982    0.01490000
opls_145-223    C    0.25977013    0.55822008    0.85674986    -0.18230000
opls_515-224    C    0.29111005    0.48456003    0.12983979    0.09570000
opls_135-225    C    0.27862988    0.48774994    0.28248973    -0.41820000
opls_135-226    C    0.33709997    0.49804993    0.12623029    -0.41830000
opls_515-227    C    0.21354991    0.49802989    0.69820961    0.09260000
opls_135-228    C    0.17231997    0.49654006    0.72078998    -0.41830000
opls_135-229    C    0.23409013    0.52307009    0.56362950    -0.41820000
opls_142-230    C    0.19565999    0.41990004    0.88875024    0.06870000
opls_700-231    C    0.18181991    0.37593989    0.86031042    -0.12470000
opls_727-232    C    0.14618004    0.35274989    0.77901002    0.12720000
opls_727-233    C    0.13163011    0.31043001    0.75042020    0.12650000
opls_700-234    C    0.37762990    0.68898983    0.97711006    -0.23830000
opls_727-235    C    0.35537996    0.71012989    0.97833025    0.19440000
opls_700-236    C    0.42354003    0.71225012    0.96279973    0.06400000
opls_145-237    C    0.44786992    0.74656009    0.04834046    -0.18160000
opls_700-238    C    0.49088009    0.77068013    0.02848025    0.01860000
opls_145-239    C    0.50998000    0.76046984    0.91758048    0.17370000
opls_700-240    C    0.48538986    0.72581986    0.82858982    0.01490000
opls_145-241    C    0.44277998    0.70155001    0.85674986    -0.18220000
opls_515-242    C    0.51643999    0.80654991    0.12983979    0.09570000
opls_135-243    C    0.51324993    0.79087998    0.28248973    -0.41830000
opls_135-244    C    0.50295007    0.83905007    0.12623029    -0.41830000
opls_515-245    C    0.50296994    0.71551987    0.69820961    0.09260000
opls_135-246    C    0.50445995    0.67577984    0.72078998    -0.41830000
opls_135-247    C    0.47793005    0.71101984    0.56362950    -0.41830000
opls_142-248    C    0.58109992    0.77575999    0.88875024    0.06880000
opls_700-249    C    0.62506009    0.80588005    0.86031042    -0.14390000
opls_727-250    C    0.64824987    0.79342993    0.77901002    0.12720000
opls_727-251    C    0.69057005    0.82120010    0.75042020    0.12640000
opls_700-252    C    0.31200992    0.68863996    0.97711006    -0.23830000
opls_727-253    C    0.29087000    0.64525010    0.97833025    0.19440000
opls_700-254    C    0.28875002    0.71128988    0.96279973    0.06400000
opls_145-255    C    0.25443994    0.70130987    0.04834046    -0.18150000
opls_700-256    C    0.23031991    0.72019991    0.02848025    0.01860000
opls_145-257    C    0.24052994    0.74950986    0.91758048    0.17380000
opls_700-258    C    0.27517989    0.75957002    0.82858982    0.01490000
opls_145-259    C    0.29944996    0.74122992    0.85674986    -0.18230000
opls_515-260    C    0.19445003    0.70989006    0.12983979    0.09570000
opls_135-261    C    0.21011999    0.72237009    0.28248973    -0.41820000
opls_135-262    C    0.16195003    0.66390001    0.12623029    -0.41830000
opls_515-263    C    0.28548007    0.78744994    0.69820961    0.09260000
opls_135-264    C    0.32522015    0.82868010    0.72078998    -0.41800000
opls_135-265    C    0.28998016    0.76691007    0.56362950    -0.41830000
opls_142-266    C    0.22523989    0.80533998    0.88875024    0.06870000
opls_700-267    C    0.19512007    0.81918006    0.86031042    -0.20990000
opls_727-268    C    0.20757001    0.85481988    0.77901002    0.12090000
opls_727-269    C    0.17979991    0.86936989    0.75042020    0.14090000
opls_700-270    C    0.35563984    0.71062989    0.35489032    -0.23830000
opls_727-271    C    0.31224999    0.68838009    0.35367013    0.19440000
opls_700-272    C    0.37829008    0.75654011    0.36919959    0.06400000
opls_145-273    C    0.36831016    0.78087007    0.28365992    -0.18160000
opls_700-274    C    0.38719987    0.82387983    0.30352014    0.01860000
opls_145-275    C    0.41651012    0.84298011    0.41441991    0.17370000
opls_700-276    C    0.42657004    0.81838998    0.50340950    0.01490000
opls_145-277    C    0.40822997    0.77578003    0.47525053    -0.18220000
opls_515-278    C    0.37689005    0.84944007    0.20215953    0.09570000
opls_135-279    C    0.38937006    0.84624986    0.04950958    -0.41820000
opls_135-280    C    0.33089997    0.83594987    0.20577009    -0.41830000
opls_515-281    C    0.45445004    0.83596991    0.63378971    0.09270000
opls_135-282    C    0.49568013    0.83746005    0.61121040    -0.41820000
opls_135-283    C    0.43390997    0.81093002    0.76836982    -0.41830000
opls_142-284    C    0.47234010    0.91410007    0.44325014    0.06870000
opls_700-285    C    0.48618004    0.95805990    0.47168996    -0.12280000
opls_727-286    C    0.52181991    0.98124991    0.55299036    0.13620000
opls_727-287    C    0.53636998    0.02357009    0.58158018    0.12620000
opls_700-288    C    0.29037005    0.64500996    0.35489032    -0.23830000
opls_727-289    C    0.31261998    0.62386991    0.35367013    0.19440000
opls_700-290    C    0.24446007    0.62174998    0.36919959    0.06400000
opls_145-291    C    0.22012991    0.58744001    0.28365992    -0.18160000
opls_700-292    C    0.17712001    0.56331998    0.30352014    0.01860000
opls_145-293    C    0.15801995    0.57352996    0.41441991    0.17370000
opls_700-294    C    0.18261009    0.60817994    0.50340950    0.01490000
opls_145-295    C    0.22522012    0.63245010    0.47525053    -0.18230000
opls_515-296    C    0.15155995    0.52744989    0.20215953    0.09570000
opls_135-297    C    0.15475017    0.54312013    0.04950958    -0.41830000
opls_135-298    C    0.16505003    0.49495004    0.20577009    -0.41830000
opls_515-299    C    0.16503000    0.61847993    0.63378971    0.09260000
opls_135-300    C    0.16354000    0.65821995    0.61121040    -0.41830000
opls_135-301    C    0.19006989    0.62297995    0.76836982    -0.41820000
opls_142-302    C    0.08690018    0.55824011    0.44325014    0.06870000
opls_700-303    C    0.04294001    0.52812005    0.47168996    -0.21910000
opls_727-304    C    0.01974981    0.54056987    0.55299036    0.12640000
opls_727-305    C    0.97743005    0.51280000    0.58158018    0.14080000
opls_700-306    C    0.35599003    0.64535984    0.35489032    -0.23830000
opls_727-307    C    0.37713009    0.68875001    0.35367013    0.19440000
opls_700-308    C    0.37924992    0.62270991    0.36919959    0.06400000
opls_145-309    C    0.41356000    0.63268993    0.28365992    -0.18160000
opls_700-310    C    0.43768004    0.61379988    0.30352014    0.01860000
opls_145-311    C    0.42747000    0.58448994    0.41441991    0.17370000
opls_700-312    C    0.39281994    0.57443008    0.50340950    0.01490000
opls_145-313    C    0.36854999    0.59276988    0.47525053    -0.18230000
opls_515-314    C    0.47355007    0.62411004    0.20215953    0.09570000
opls_135-315    C    0.45788011    0.61163002    0.04950958    -0.41820000
opls_135-316    C    0.50605007    0.67010010    0.20577009    -0.41820000
opls_515-317    C    0.38251988    0.54654986    0.63378971    0.09260000
opls_135-318    C    0.34277995    0.50532000    0.61121040    -0.41820000
opls_135-319    C    0.37801994    0.56709003    0.76836982    -0.41830000
opls_142-320    C    0.44275995    0.52866013    0.44325014    0.06870000
opls_700-321    C    0.47288003    0.51482005    0.47168996    -0.11940000
opls_727-322    C    0.46042994    0.47917992    0.55299036    0.13620000
opls_727-323    C    0.48820003    0.46462991    0.58158018    0.13620000
opls_719-324    F    0.91497008    0.95702013    0.31176996    -0.12430000
opls_719-325    F    0.80981000    0.09762995    0.33463011    -0.14940000
opls_719-326    F    0.75401008    0.12631998    0.27381013    -0.16020000
opls_719-327    F    0.04297997    0.95794985    0.31176996    -0.12430000
opls_719-328    F    0.90236992    0.71217984    0.33463011    -0.14440000
opls_719-329    F    0.87368002    0.62768990    0.27381013    -0.09660000
opls_719-330    F    0.04204996    0.08503001    0.31176996    -0.12420000
opls_719-331    F    0.28781993    0.19018990    0.33463011    -0.15270000
opls_719-332    F    0.37231016    0.24599012    0.27381013    -0.15970000
opls_719-333    F    0.08502992    0.04297987    0.68823004    -0.12420000
opls_719-334    F    0.19019000    0.90237005    0.66536989    -0.14900000
opls_719-335    F    0.24598992    0.87368002    0.72618987    -0.07770000
opls_719-336    F    0.95702003    0.04205015    0.68823004    -0.12430000
opls_719-337    F    0.09762993    0.28781985    0.66536989    -0.16380000
opls_719-338    F    0.12631998    0.37231010    0.72618987    -0.16200000
opls_719-339    F    0.95795004    0.91496999    0.68823004    -0.12430000
opls_719-340    F    0.71218007    0.80981010    0.66536989    -0.10140000
opls_719-341    F    0.62768984    0.75400988    0.72618987    -0.16060000
opls_719-342    F    0.58197000    0.29001993    0.64477032    -0.12430000
opls_719-343    F    0.47681008    0.43063005    0.66763048    -0.15270000
opls_719-344    F    0.42101016    0.45932008    0.60681049    -0.15970000
opls_719-345    F    0.70998004    0.29094996    0.64477032    -0.12430000
opls_719-346    F    0.56936999    0.04517994    0.66763048    -0.14940000
opls_719-347    F    0.54068009    0.96069000    0.60681049    -0.16020000
opls_719-348    F    0.70905003    0.41803011    0.64477032    -0.12420000
opls_719-349    F    0.95482000    0.52319000    0.66763048    -0.14420000
opls_719-350    F    0.03931008    0.57898991    0.60681049    -0.09660000
opls_719-351    F    0.75203000    0.37597997    0.02123040    -0.12420000
opls_719-352    F    0.85719007    0.23537015    0.99837025    -0.14940000
opls_719-353    F    0.91298999    0.20668012    0.05919023    -0.16010000
opls_719-354    F    0.62401995    0.37504994    0.02123040    -0.12430000
opls_719-355    F    0.76463000    0.62081995    0.99837025    -0.14440000
opls_719-356    F    0.79331990    0.70530989    0.05919023    -0.09640000
opls_719-357    F    0.62495012    0.24797009    0.02123040    -0.12430000
opls_719-358    F    0.37917999    0.14280989    0.99837025    -0.15270000
opls_719-359    F    0.29468991    0.08700999    0.05919023    -0.15970000
opls_719-360    F    0.37698009    0.62495006    0.97776962    -0.12420000
opls_719-361    F    0.23637004    0.37918005    0.00062977    -0.16380000
opls_719-362    F    0.20768015    0.29469011    0.93980979    -0.16200000
opls_719-363    F    0.37604993    0.75202991    0.97776962    -0.12430000
opls_719-364    F    0.62182005    0.85719011    0.00062977    -0.10140000
opls_719-365    F    0.70631014    0.91299001    0.93980979    -0.16050000
opls_719-366    F    0.24897005    0.62402003    0.97776962    -0.12430000
opls_719-367    F    0.14380997    0.76462985    0.00062977    -0.14900000
opls_719-368    F    0.08801006    0.79331988    0.93980979    -0.07770000
opls_719-369    F    0.29102000    0.70905004    0.35422970    -0.12430000
opls_719-370    F    0.43163006    0.95482006    0.33136955    -0.14930000
opls_719-371    F    0.46031995    0.03931000    0.39218953    -0.16020000
opls_719-372    F    0.29195002    0.58196989    0.35422970    -0.12430000
opls_719-373    F    0.04618004    0.47681000    0.33136955    -0.14440000
opls_719-374    F    0.96168996    0.42101009    0.39218953    -0.09660000
opls_719-375    F    0.41903005    0.70998007    0.35422970    -0.12430000
opls_719-376    F    0.52418997    0.56936995    0.33136955    -0.15270000
opls_719-377    F    0.57998989    0.54067992    0.39218953    -0.15970000
opls_750-378    N    0.87973991    0.09933989    0.22743984    -0.34000000
opls_750-379    N    0.90065988    0.78039996    0.22743984    -0.33990000
opls_750-380    N    0.21960021    0.12026015    0.22743984    -0.34010000
opls_750-381    N    0.12026009    0.90066011    0.77256016    -0.34000000
opls_750-382    N    0.09934012    0.21960004    0.77256016    -0.34010000
opls_750-383    N    0.78039979    0.87973985    0.77256016    -0.33980000
opls_750-384    N    0.54673999    0.43233999    0.56044020    -0.34010000
opls_750-385    N    0.56765995    0.11340007    0.56044020    -0.34010000
opls_750-386    N    0.88659986    0.45325994    0.56044020    -0.34010000
opls_750-387    N    0.78726001    0.23365991    0.10556052    -0.34010000
opls_750-388    N    0.76634019    0.55260014    0.10556052    -0.34010000
opls_750-389    N    0.44739987    0.21273995    0.10556052    -0.34010000
opls_750-390    N    0.23465985    0.44739986    0.89343950    -0.34000000
opls_750-391    N    0.55359991    0.78726005    0.89343950    -0.34010000
opls_750-392    N    0.21374004    0.76634009    0.89343950    -0.33990000
opls_750-393    N    0.43334009    0.88659993    0.43855982    -0.34010000
opls_750-394    N    0.11439992    0.54674006    0.43855982    -0.34010000
opls_750-395    N    0.45426006    0.56766001    0.43855982    -0.34000000
opls_146-396    H    0.91269004    0.01164001    0.46559009    0.11470000
opls_146-397    H    0.99204998    0.08189991    0.12518032    0.11870000
opls_702-398    H    0.84449997    0.06047009    0.43245995    0.04310000
opls_140-399    H    0.90042982    0.08837991    0.61994000    0.16680000
opls_140-400    H    0.88939006    0.03678008    0.65899023    0.11060000
opls_140-401    H    0.85065990    0.05136986    0.68748005    0.16730000
opls_140-402    H    0.81438003    0.98824994    0.35199038    0.16720000
opls_140-403    H    0.80224001    0.99042011    0.53428012    0.11040000
opls_140-404    H    0.84097004    0.97706986    0.49082041    0.16450000
opls_702-405    H    0.92591003    0.12684002    0.01014978    0.04010000
opls_140-406    H    0.98925006    0.17717011    0.15264994    0.16750000
opls_140-407    H    0.99651008    0.18290010    0.96404970    0.10950000
opls_140-408    H    0.01841003    0.15749985    0.06364971    0.16710000
opls_140-409    H    0.98480998    0.09835992    0.89635008    0.16690000
opls_140-410    H    0.95643987    0.11717999    0.80147018    0.10230000
opls_140-411    H    0.92988997    0.06800989    0.88623965    0.16800000
opls_144-412    H    0.92351003    0.16148014    0.23350035    0.10590000
opls_146-413    H    0.98835991    0.90105007    0.46559009    0.11470000
opls_146-414    H    0.91810001    0.91014999    0.12518032    0.11860000
opls_702-415    H    0.93953000    0.78403007    0.43245995    0.04310000
opls_140-416    H    0.91161999    0.81204994    0.61994000    0.16690000
opls_140-417    H    0.96321989    0.85260994    0.65899023    0.11060000
opls_140-418    H    0.94862988    0.79929001    0.68748005    0.16720000
opls_140-419    H    0.01174986    0.82612985    0.35199038    0.16730000
opls_140-420    H    0.00957993    0.81181997    0.53428012    0.11040000
opls_140-421    H    0.02293014    0.86390007    0.49082041    0.16450000
opls_702-422    H    0.87316003    0.79906991    0.01014978    0.04010000
opls_140-423    H    0.82282979    0.81207984    0.15264994    0.16740000
opls_140-424    H    0.81709994    0.81361005    0.96404970    0.10940000
opls_140-425    H    0.84250009    0.86090992    0.06364971    0.16710000
opls_140-426    H    0.90164015    0.88645012    0.89635008    0.16680000
opls_140-427    H    0.88282000    0.83926000    0.80147018    0.10230000
opls_140-428    H    0.93198998    0.86188002    0.88623965    0.16820000
opls_144-429    H    0.83851999    0.76202996    0.23350035    0.10590000
opls_146-430    H    0.09895005    0.08730993    0.46559009    0.11470000
opls_146-431    H    0.08985001    0.00795010    0.12518032    0.11860000
opls_702-432    H    0.21597018    0.15550015    0.43245995    0.04310000
opls_140-433    H    0.18795003    0.09956985    0.61994000    0.16680000
opls_140-434    H    0.14739005    0.11060998    0.65899023    0.11070000
opls_140-435    H    0.20070996    0.14934013    0.68748005    0.16730000
opls_140-436    H    0.17386996    0.18561990    0.35199038    0.16720000
opls_140-437    H    0.18818006    0.19775991    0.53428012    0.11040000
opls_140-438    H    0.13610009    0.15903007    0.49082041    0.16450000
opls_702-439    H    0.20092994    0.07409007    0.01014978    0.04010000
opls_140-440    H    0.18792015    0.01075005    0.15264994    0.16740000
opls_140-441    H    0.18639014    0.00349015    0.96404970    0.10940000
opls_140-442    H    0.13909000    0.98158992    0.06364971    0.16710000
opls_140-443    H    0.11354987    0.01518996    0.89635008    0.16680000
opls_140-444    H    0.16074013    0.04356002    0.80147018    0.10230000
opls_140-445    H    0.13812005    0.07011009    0.88623965    0.16800000
opls_144-446    H    0.23796998    0.07648990    0.23350035    0.10590000
opls_146-447    H    0.08730996    0.98835999    0.53440991    0.11470000
opls_146-448    H    0.00795002    0.91810009    0.87481968    0.11860000
opls_702-449    H    0.15550003    0.93952991    0.56754005    0.04310000
opls_140-450    H    0.09957018    0.91162009    0.38006000    0.16700000
opls_140-451    H    0.11060994    0.96321992    0.34100977    0.11060000
opls_140-452    H    0.14933994    0.94862983    0.31251995    0.16720000
opls_140-453    H    0.18561997    0.01175006    0.64800962    0.16720000
opls_140-454    H    0.19775999    0.00957989    0.46571988    0.11040000
opls_140-455    H    0.15902996    0.02293014    0.50917959    0.16450000
opls_702-456    H    0.07408997    0.87315998    0.98985022    0.04010000
opls_140-457    H    0.01074994    0.82282989    0.84735006    0.16740000
opls_140-458    H    0.00348992    0.81709990    0.03595030    0.10950000
opls_140-459    H    0.98158982    0.84249984    0.93635029    0.16710000
opls_140-460    H    0.01519002    0.90164008    0.10364992    0.16680000
opls_140-461    H    0.04356013    0.88282001    0.19852982    0.10230000
opls_140-462    H    0.07011003    0.93199011    0.11376035    0.16800000
opls_144-463    H    0.07648997    0.83851986    0.76649965    0.10590000
opls_146-464    H    0.01164009    0.09894993    0.53440991    0.11470000
opls_146-465    H    0.08189999    0.08985001    0.87481968    0.11860000
opls_702-466    H    0.06047000    0.21596993    0.56754005    0.04310000
opls_140-467    H    0.08838001    0.18795006    0.38006000    0.16690000
opls_140-468    H    0.03678011    0.14739006    0.34100977    0.11060000
opls_140-469    H    0.05137012    0.20070999    0.31251995    0.16720000
opls_140-470    H    0.98824999    0.17386985    0.64800962    0.16730000
opls_140-471    H    0.99042007    0.18818003    0.46571988    0.11040000
opls_140-472    H    0.97706986    0.13609993    0.50917959    0.16450000
opls_702-473    H    0.12683997    0.20093009    0.98985022    0.04010000
opls_140-474    H    0.17717006    0.18791985    0.84735006    0.16740000
opls_140-475    H    0.18290006    0.18638995    0.03595030    0.10940000
opls_140-476    H    0.15749991    0.13909008    0.93635029    0.16710000
opls_140-477    H    0.09835985    0.11354988    0.10364992    0.16680000
opls_140-478    H    0.11718000    0.16074000    0.19852982    0.10230000
opls_140-479    H    0.06801002    0.13811998    0.11376035    0.16800000
opls_144-480    H    0.16148001    0.23797004    0.76649965    0.10590000
opls_146-481    H    0.90104995    0.91269007    0.53440991    0.11470000
opls_146-482    H    0.91014999    0.99204990    0.87481968    0.11860000
opls_702-483    H    0.78402982    0.84449985    0.56754005    0.04310000
opls_140-484    H    0.81204981    0.90042984    0.38006000    0.16680000
opls_140-485    H    0.85260995    0.88939002    0.34100977    0.11060000
opls_140-486    H    0.79929004    0.85065987    0.31251995    0.16720000
opls_140-487    H    0.82613004    0.81438010    0.64800962    0.16720000
opls_140-488    H    0.81181994    0.80224009    0.46571988    0.11040000
opls_140-489    H    0.86389991    0.84096993    0.50917959    0.16450000
opls_702-490    H    0.79907006    0.92590993    0.98985022    0.04010000
opls_140-491    H    0.81207985    0.98924995    0.84735006    0.16740000
opls_140-492    H    0.81360986    0.99650985    0.03595030    0.10940000
opls_140-493    H    0.86091000    0.01841008    0.93635029    0.16710000
opls_140-494    H    0.88645013    0.98481004    0.10364992    0.16680000
opls_140-495    H    0.83925987    0.95643998    0.19852982    0.10230000
opls_140-496    H    0.86187995    0.92988991    0.11376035    0.16800000
opls_144-497    H    0.76203002    0.92351010    0.76649965    0.10590000
opls_146-498    H    0.57969012    0.34464011    0.79859046    0.11470000
opls_146-499    H    0.65905005    0.41490001    0.45817961    0.11860000
opls_702-500    H    0.51149989    0.39346988    0.76546031    0.04310000
opls_140-501    H    0.56742990    0.42138001    0.95294036    0.16680000
opls_140-502    H    0.55638998    0.36977988    0.99198953    0.11070000
opls_140-503    H    0.51765997    0.38436996    0.02048042    0.16720000
opls_140-504    H    0.48138010    0.32125004    0.68498968    0.16720000
opls_140-505    H    0.46923993    0.32341991    0.86728048    0.11050000
opls_140-506    H    0.50797011    0.31006996    0.82381971    0.16450000
opls_702-507    H    0.59291011    0.45984012    0.34315015    0.04020000
opls_140-508    H    0.65624998    0.51016990    0.48565031    0.16740000
opls_140-509    H    0.66351000    0.51589989    0.29705006    0.10940000
opls_140-510    H    0.68541010    0.49049995    0.39665007    0.16710000
opls_140-511    H    0.65181005    0.43136002    0.22935044    0.16680000
opls_140-512    H    0.62343994    0.45018009    0.13446948    0.10230000
opls_140-513    H    0.59689004    0.40100999    0.21924002    0.16800000
opls_144-514    H    0.59050995    0.49447994    0.56649965    0.10590000
opls_146-515    H    0.65535982    0.23404986    0.79859046    0.11470000
opls_146-516    H    0.58510008    0.24315009    0.45817961    0.11860000
opls_702-517    H    0.60652992    0.11702986    0.76546031    0.04310000
opls_140-518    H    0.57862006    0.14505004    0.95294036    0.16690000
opls_140-519    H    0.63021996    0.18561004    0.99198953    0.11060000
opls_140-520    H    0.61562995    0.13229011    0.02048042    0.16720000
opls_140-521    H    0.67874993    0.15912995    0.68498968    0.16720000
opls_140-522    H    0.67658001    0.14482007    0.86728048    0.11040000
opls_140-523    H    0.68993006    0.19689986    0.82381971    0.16460000
opls_702-524    H    0.54016010    0.13207001    0.34315015    0.04010000
opls_140-525    H    0.48982986    0.14507994    0.48565031    0.16740000
opls_140-526    H    0.48409986    0.14660985    0.29705006    0.10940000
opls_140-527    H    0.50949989    0.19391002    0.39665007    0.16710000
opls_140-528    H    0.56864007    0.21944991    0.22935044    0.16680000
opls_140-529    H    0.54982007    0.17226010    0.13446948    0.10230000
opls_140-530    H    0.59899005    0.19488012    0.21924002    0.16800000
opls_144-531    H    0.50552007    0.09503006    0.56649965    0.10590000
opls_146-532    H    0.76595012    0.42031003    0.79859046    0.11470000
opls_146-533    H    0.75684993    0.34094989    0.45817961    0.11860000
opls_702-534    H    0.88297010    0.48849994    0.76546031    0.04310000
opls_140-535    H    0.85495010    0.43256995    0.95294036    0.16680000
opls_140-536    H    0.81439013    0.44361008    0.99198953    0.11060000
opls_140-537    H    0.86770987    0.48233993    0.02048042    0.16730000
opls_140-538    H    0.84087003    0.51862001    0.68498968    0.16720000
opls_140-539    H    0.85518013    0.53076002    0.86728048    0.11040000
opls_140-540    H    0.80310001    0.49202986    0.82381971    0.16450000
opls_702-541    H    0.86792986    0.40708986    0.34315015    0.04010000
opls_140-542    H    0.85491980    0.34374985    0.48565031    0.16740000
opls_140-543    H    0.85339005    0.33648995    0.29705006    0.10950000
opls_140-544    H    0.80609007    0.31459002    0.39665007    0.16710000
opls_140-545    H    0.78054994    0.34819007    0.22935044    0.16680000
opls_140-546    H    0.82773994    0.37656012    0.13446948    0.10230000
opls_140-547    H    0.80511997    0.40310988    0.21924002    0.16800000
opls_144-548    H    0.90497005    0.40949000    0.56649965    0.10590000
opls_146-549    H    0.75431003    0.32136009    0.86741027    0.11770000
opls_146-550    H    0.67494994    0.25109988    0.20782005    0.11870000
opls_702-551    H    0.82250010    0.27253001    0.90054041    0.04310000
opls_140-552    H    0.76656983    0.24461989    0.71306036    0.16680000
opls_140-553    H    0.77761001    0.29622002    0.67401013    0.11060000
opls_140-554    H    0.81634002    0.28162993    0.64552031    0.16730000
opls_140-555    H    0.85261989    0.34474985    0.98100998    0.16720000
opls_140-556    H    0.86476007    0.34257999    0.79872024    0.11040000
opls_140-557    H    0.82602988    0.35592993    0.84217995    0.16450000
opls_702-558    H    0.74109004    0.20616008    0.32284951    0.04020000
opls_140-559    H    0.67775001    0.15582999    0.18035042    0.16740000
opls_140-560    H    0.67049000    0.15010000    0.36894960    0.10940000
opls_140-561    H    0.64858989    0.17549994    0.26934959    0.16710000
opls_140-562    H    0.68218994    0.23463987    0.43665028    0.16680000
opls_140-563    H    0.71055994    0.21582012    0.53153018    0.10230000
opls_140-564    H    0.73710995    0.26498990    0.44675964    0.16800000
opls_144-565    H    0.74349004    0.17151996    0.09950001    0.10600000
opls_146-566    H    0.67863990    0.43195003    0.86741027    0.11470000
opls_146-567    H    0.74890006    0.42285011    0.20782005    0.11860000
opls_702-568    H    0.72747007    0.54897003    0.90054041    0.04310000
opls_140-569    H    0.75537993    0.52094986    0.71306036    0.16680000
opls_140-570    H    0.70378003    0.48038985    0.67401013    0.11060000
opls_140-571    H    0.71836993    0.53371009    0.64552031    0.16720000
opls_140-572    H    0.65525006    0.50686995    0.98100998    0.16720000
opls_140-573    H    0.65742014    0.52118013    0.79872024    0.11040000
opls_140-574    H    0.64406994    0.46910003    0.84217995    0.16450000
opls_702-575    H    0.79383989    0.53392988    0.32284951    0.04010000
opls_140-576    H    0.84416986    0.52091996    0.18035042    0.16740000
opls_140-577    H    0.84990013    0.51939005    0.36894960    0.10940000
opls_140-578    H    0.82449983    0.47208987    0.26934959    0.16710000
opls_140-579    H    0.76535992    0.44654998    0.43665028    0.16680000
opls_140-580    H    0.78418007    0.49374010    0.53153018    0.10230000
opls_140-581    H    0.73501009    0.47112008    0.44675964    0.16800000
opls_144-582    H    0.82848008    0.57097014    0.09950001    0.10590000
opls_146-583    H    0.56804987    0.24568987    0.86741027    0.11470000
opls_146-584    H    0.57715006    0.32505000    0.20782005    0.11860000
opls_702-585    H    0.45102990    0.17749995    0.90054041    0.04310000
opls_140-586    H    0.47904989    0.23342994    0.71306036    0.16680000
opls_140-587    H    0.51961002    0.22239012    0.67401013    0.11070000
opls_140-588    H    0.46629012    0.18365997    0.64552031    0.16720000
opls_140-589    H    0.49312996    0.14737989    0.98100998    0.16720000
opls_140-590    H    0.47881986    0.13523988    0.79872024    0.11040000
opls_140-591    H    0.53089998    0.17397003    0.84217995    0.16450000
opls_702-592    H    0.46607013    0.25891003    0.32284951    0.04010000
opls_140-593    H    0.47907992    0.32225005    0.18035042    0.16740000
opls_140-594    H    0.48060994    0.32950995    0.36894960    0.10940000
opls_140-595    H    0.52790992    0.35140987    0.26934959    0.16710000
opls_140-596    H    0.55344994    0.31781014    0.43665028    0.16700000
opls_140-597    H    0.50625994    0.28944008    0.53153018    0.10230000
opls_140-598    H    0.52888002    0.26289001    0.44675964    0.16800000
opls_144-599    H    0.42902994    0.25650990    0.09950001    0.10590000
opls_146-600    H    0.32235988    0.56804997    0.13158975    0.11770000
opls_146-601    H    0.25209998    0.57714989    0.79117997    0.11860000
opls_702-602    H    0.27352998    0.45102997    0.09845961    0.04310000
opls_140-603    H    0.24562012    0.47905014    0.28593966    0.16680000
opls_140-604    H    0.29721986    0.51960984    0.32498989    0.11060000
opls_140-605    H    0.28262985    0.46628991    0.35347971    0.16720000
opls_140-606    H    0.34574999    0.49313005    0.01799004    0.16730000
opls_140-607    H    0.34357991    0.47881987    0.20027978    0.11040000
opls_140-608    H    0.35693011    0.53089997    0.15682007    0.16450000
opls_702-609    H    0.20716015    0.46607012    0.67615051    0.04010000
opls_140-610    H    0.15682992    0.47908004    0.81864960    0.16740000
opls_140-611    H    0.15109991    0.48060995    0.63005042    0.10940000
opls_140-612    H    0.17649995    0.52791013    0.72965043    0.16710000
opls_140-613    H    0.23564012    0.55345002    0.56234974    0.16680000
opls_140-614    H    0.21681997    0.50625990    0.46746984    0.10230000
opls_140-615    H    0.26598995    0.52887992    0.55224038    0.16800000
opls_144-616    H    0.17251996    0.42902986    0.89950001    0.10590000
opls_146-617    H    0.43295018    0.75431013    0.13158975    0.11770000
opls_146-618    H    0.42384998    0.67495000    0.79117997    0.11860000
opls_702-619    H    0.54997015    0.82250005    0.09845961    0.04310000
opls_140-620    H    0.52195016    0.76657006    0.28593966    0.16680000
opls_140-621    H    0.48139003    0.77760988    0.32498989    0.11060000
opls_140-622    H    0.53470993    0.81634003    0.35347971    0.16720000
opls_140-623    H    0.50787008    0.85262011    0.01799004    0.16720000
opls_140-624    H    0.52218019    0.86476012    0.20027978    0.11040000
opls_140-625    H    0.47010006    0.82602997    0.15682007    0.16450000
opls_702-626    H    0.53492991    0.74108997    0.67615051    0.04010000
opls_140-627    H    0.52191986    0.67774995    0.81864960    0.16740000
opls_140-628    H    0.52039011    0.67049005    0.63005042    0.10940000
opls_140-629    H    0.47309012    0.64859013    0.72965043    0.16710000
opls_140-630    H    0.44754984    0.68218986    0.56234974    0.16680000
opls_140-631    H    0.49473984    0.71055992    0.46746984    0.10230000
opls_140-632    H    0.47212002    0.73710999    0.55224038    0.16800000
opls_144-633    H    0.57197010    0.74349010    0.89950001    0.10590000
opls_146-634    H    0.24669002    0.67863991    0.13158975    0.11770000
opls_146-635    H    0.32605010    0.74890012    0.79117997    0.11860000
opls_702-636    H    0.17849995    0.72746999    0.09845961    0.04320000
opls_140-637    H    0.23442995    0.75538011    0.28593966    0.16680000
opls_140-638    H    0.22339003    0.70377998    0.32498989    0.11060000
opls_140-639    H    0.18466003    0.71837007    0.35347971    0.16730000
opls_140-640    H    0.14838000    0.65524984    0.01799004    0.16720000
opls_140-641    H    0.13623998    0.65742001    0.20027978    0.11040000
opls_140-642    H    0.17497017    0.64407007    0.15682007    0.16450000
opls_702-643    H    0.25991001    0.79383992    0.67615051    0.04010000
opls_140-644    H    0.32325003    0.84417001    0.81864960    0.16740000
opls_140-645    H    0.33051005    0.84990000    0.63005042    0.10940000
opls_140-646    H    0.35241015    0.82450006    0.72965043    0.16710000
opls_140-647    H    0.31881011    0.76536013    0.56234974    0.16680000
opls_140-648    H    0.29043984    0.78417988    0.46746984    0.10230000
opls_140-649    H    0.26389010    0.73501010    0.55224038    0.16800000
opls_144-650    H    0.25751000    0.82848004    0.89950001    0.10590000
opls_146-651    H    0.34563980    0.76594983    0.20040957    0.11470000
opls_146-652    H    0.41589996    0.75684991    0.54082041    0.11870000
opls_702-653    H    0.39446997    0.88296983    0.23353971    0.04320000
opls_140-654    H    0.42237998    0.85494996    0.04605966    0.16680000
opls_140-655    H    0.37078009    0.81438996    0.00701049    0.11060000
opls_140-656    H    0.38536983    0.86770989    0.97851961    0.16720000
opls_140-657    H    0.32225011    0.84087005    0.31401034    0.16720000
opls_140-658    H    0.32442004    0.85517993    0.13171954    0.11040000
opls_140-659    H    0.31106999    0.80310014    0.17518032    0.16450000
opls_702-660    H    0.46083995    0.86792999    0.65584988    0.04020000
opls_140-661    H    0.51116992    0.85492006    0.51334972    0.16740000
opls_140-662    H    0.51690003    0.85338984    0.70194996    0.10940000
opls_140-663    H    0.49149989    0.80608998    0.60234995    0.16720000
opls_140-664    H    0.43235998    0.78055009    0.76964958    0.16680000
opls_140-665    H    0.45117997    0.82773990    0.86452948    0.10230000
opls_140-666    H    0.40200999    0.80511988    0.77976001    0.16800000
opls_144-667    H    0.49547998    0.90496994    0.43250037    0.10590000
opls_146-668    H    0.23504992    0.57968997    0.20040957    0.11480000
opls_146-669    H    0.24415012    0.65905011    0.54082041    0.11870000
opls_702-670    H    0.11802995    0.51150006    0.23353971    0.04310000
opls_140-671    H    0.14604994    0.56743005    0.04605966    0.16680000
opls_140-672    H    0.18660992    0.55638992    0.00701049    0.11060000
opls_140-673    H    0.13329017    0.51766007    0.97851961    0.16720000
opls_140-674    H    0.16013001    0.48137999    0.31401034    0.16720000
opls_140-675    H    0.14581991    0.46923998    0.13171954    0.11040000
opls_140-676    H    0.19790004    0.50797014    0.17518032    0.16450000
opls_702-677    H    0.13307018    0.59291014    0.65584988    0.04010000
opls_140-678    H    0.14607982    0.65624985    0.51334972    0.16740000
opls_140-679    H    0.14760999    0.66351005    0.70194996    0.10940000
opls_140-680    H    0.19490997    0.68540998    0.60234995    0.16710000
opls_140-681    H    0.22044983    0.65180993    0.76964958    0.16700000
opls_140-682    H    0.17325984    0.62343988    0.86452948    0.10230000
opls_140-683    H    0.19588007    0.59689012    0.77976001    0.16810000
opls_144-684    H    0.09603000    0.59051000    0.43250037    0.10590000
opls_146-685    H    0.42130993    0.65535989    0.20040957    0.11470000
opls_146-686    H    0.34194999    0.58509999    0.54082041    0.11860000
opls_702-687    H    0.48950015    0.60653012    0.23353971    0.04310000
opls_140-688    H    0.43356988    0.57861999    0.04605966    0.16680000
opls_140-689    H    0.44461007    0.63022012    0.00701049    0.11060000
opls_140-690    H    0.48334007    0.61563004    0.97851961    0.16720000
opls_140-691    H    0.51961994    0.67874996    0.31401034    0.16730000
opls_140-692    H    0.53176012    0.67658009    0.13171954    0.11040000
opls_140-693    H    0.49302993    0.68993004    0.17518032    0.16450000
opls_702-694    H    0.40808994    0.54015988    0.65584988    0.04010000
opls_140-695    H    0.34475007    0.48983010    0.51334972    0.16740000
opls_140-696    H    0.33749005    0.48410011    0.70194996    0.10940000
opls_140-697    H    0.31558994    0.50950005    0.60234995    0.16710000
opls_140-698    H    0.34918999    0.56863998    0.76964958    0.16680000
opls_140-699    H    0.37755984    0.54981991    0.86452948    0.10230000
opls_140-700    H    0.40411000    0.59899001    0.77976001    0.16800000
opls_144-701    H    0.41049009    0.50552006    0.43250037    0.10590000
