#======================================================================
# Crystal Data Generated By AuToFF
#----------------------------------------------------------------------

data_AuToFF_phase_1

_cell_length_a                         52.0237
_cell_length_b                         52.0237
_cell_length_c                         10.3049
_cell_angle_alpha                      90.00
_cell_angle_beta                       90.00
_cell_angle_gamma                      120.00
_symmetry_space_group_name_H-M_alt     'P 1'
_symmetry_space_group_IT_number        1

loop_
_space_group_symop_operation_xyz
   'x, y, z'

loop_
   _atom_site_label
   _atom_site_type_symbol
   _atom_site_fract_x
   _atom_site_fract_y
   _atom_site_fract_z
   _atom_site_charge
opls_145-0    C    0.92195000    0.93957986    0.85729022    -0.08520000
opls_145-1    C    0.89112989    0.92374991    0.87149026    -0.12670000
opls_145-2    C    0.87333000    0.93315000    0.80963037    0.20910000
opls_145-3    C    0.88694997    0.95859999    0.73018952    -0.15300000
opls_145-4    C    0.91779000    0.97431984    0.71502974    -0.08760000
opls_700-5    C    0.93572994    0.96522983    0.77960970    0.07580000
opls_142-6    C    0.82161991    0.91986989    0.77411037    0.01490000
opls_700-7    C    0.79003002    0.90182992    0.81059011    0.06680000
opls_145-8    C    0.76873986    0.90430984    0.73708042    -0.10610000
opls_145-9    C    0.73855007    0.88673998    0.76491960    -0.10620000
opls_700-10    C    0.72924991    0.86770986    0.87228988    0.07940000
opls_145-11    C    0.75046999    0.86492986    0.94579957    -0.08510000
opls_145-12    C    0.78066996    0.88193995    0.91567992    -0.08760000
opls_700-13    C    0.69730994    0.84783986    0.89705965    0.00120000
opls_624-14    C    0.67713001    0.85717003    0.93660977    0.07480000
opls_624-15    C    0.64736001    0.83730003    0.94913973    0.07480000
opls_700-16    C    0.63519990    0.80698986    0.91545964    0.00530000
opls_145-17    C    0.65525992    0.79729990    0.88307019    -0.08740000
opls_145-18    C    0.68577002    0.81731994    0.87555047    -0.08760000
opls_700-19    C    0.60308001    0.78615990    0.89652010    0.06980000
opls_145-20    C    0.58587007    0.79479001    0.82375957    -0.08500000
opls_145-21    C    0.55529997    0.77580984    0.81104038    -0.08520000
opls_700-22    C    0.54164993    0.74732992    0.86667993    0.06450000
opls_145-23    C    0.55930986    0.73771986    0.92903958    -0.08500000
opls_145-24    C    0.58973011    0.75708003    0.94522994    -0.08520000
opls_142-25    C    0.50909001    0.72795999    0.86631020    0.01490000
opls_558-26    C    0.65517995    0.88157993    0.01125969    0.22360000
opls_145-27    C    0.46015989    0.72268985    0.83208959    0.20760000
opls_145-28    C    0.44557987    0.73472988    0.76274006    -0.12660000
opls_145-29    C    0.41464986    0.72102983    0.76399965    -0.08520000
opls_700-30    C    0.39758008    0.69507001    0.83686984    0.07440000
opls_145-31    C    0.41227989    0.68322996    0.90846005    -0.08760000
opls_145-32    C    0.44323998    0.69687984    0.90652990    -0.15290000
opls_142-33    C    0.70967993    0.91301986    0.97638987    0.06320000
opls_142-34    C    0.60486989    0.83912984    0.06346010    0.06370000
opls_143-35    C    0.72914997    0.91510981    0.09082961    -0.33330000
opls_143-36    C    0.58574990    0.85057992    0.00265990    -0.33310000
opls_700-37    C    0.96867996    0.98301988    0.77064018    0.07490000
opls_700-38    C    0.36461999    0.68049989    0.83857000    0.07470000
opls_145-39    C    0.35059987    0.69762984    0.83876020    -0.07130000
opls_145-40    C    0.98319988    0.01419990    0.76995022    -0.07130000
opls_145-41    C    0.41187996    0.72739999    0.41036012    -0.08520000
opls_145-42    C    0.44279995    0.74352003    0.41958971    -0.12670000
opls_145-43    C    0.46025003    0.73405003    0.35500975    0.20910000
opls_145-44    C    0.44614993    0.70810996    0.27880038    -0.15300000
opls_145-45    C    0.41521001    0.69211999    0.26857029    -0.08750000
opls_700-46    C    0.39764995    0.70139000    0.33513959    0.07470000
opls_142-47    C    0.51167997    0.74823994    0.30686955    0.01490000
opls_700-48    C    0.54360001    0.76658998    0.33702996    0.06680000
opls_145-49    C    0.56421005    0.76419995    0.25808014    -0.10610000
opls_145-50    C    0.59462002    0.78182997    0.28083048    -0.10620000
opls_700-51    C    0.60489985    0.80106983    0.38741958    0.07600000
opls_145-52    C    0.58436994    0.80388002    0.46586963    -0.08520000
opls_145-53    C    0.55391007    0.78664998    0.44152005    -0.08760000
opls_700-54    C    0.63705002    0.82097002    0.40659977    0.00150000
opls_624-55    C    0.65749004    0.81159990    0.44047977    0.07790000
opls_624-56    C    0.68738993    0.83129988    0.44643034    0.07480000
opls_700-57    C    0.69935008    0.86146001    0.41049016    0.00540000
opls_145-58    C    0.67908991    0.87127981    0.38458986    -0.08760000
opls_145-59    C    0.64849000    0.85144999    0.38455977    -0.08760000
opls_700-60    C    0.73120002    0.88189000    0.38317985    0.07030000
opls_145-61    C    0.74732991    0.87247993    0.30705975    -0.08500000
opls_145-62    C    0.77771997    0.89117001    0.28668012    -0.08520000
opls_700-63    C    0.79220988    0.92009984    0.33781987    0.06670000
opls_145-64    C    0.77553009    0.93036000    0.40386030    -0.08490000
opls_145-65    C    0.74534003    0.91134986    0.42751021    -0.08500000
opls_142-66    C    0.82470987    0.93935990    0.32903958    0.01490000
opls_558-67    C    0.67988989    0.78720997    0.50987977    0.22360000
opls_145-68    C    0.87317989    0.94435992    0.28579996    0.20730000
opls_145-69    C    0.88711992    0.93193989    0.21436986    -0.12670000
opls_145-70    C    0.91804993    0.94563994    0.21039020    -0.08510000
opls_700-71    C    0.93577999    0.97197998    0.27989015    0.07450000
opls_145-72    C    0.92171996    0.98421999    0.35332027    -0.08760000
opls_145-73    C    0.89076994    0.97058986    0.35661967    -0.15300000
opls_142-74    C    0.62491991    0.75610986    0.48662966    0.06310000
opls_142-75    C    0.73082003    0.82972998    0.55222952    0.06370000
opls_143-76    C    0.60608996    0.75542001    0.60150026    -0.33320000
opls_143-77    C    0.74913987    0.81770992    0.48838029    -0.33320000
opls_700-78    C    0.36465995    0.68359996    0.32935011    0.07510000
opls_700-79    C    0.96872993    0.98635988    0.27776009    0.07470000
opls_145-80    C    0.98254990    0.96904993    0.27760968    -0.07130000
opls_145-81    C    0.35009005    0.65241994    0.32889984    -0.07130000
opls_145-82    C    0.06041998    0.98236999    0.85729022    -0.08520000
opls_145-83    C    0.07624989    0.96737992    0.87149026    -0.12670000
opls_145-84    C    0.06684984    0.94017981    0.80963037    0.20910000
opls_145-85    C    0.04139998    0.92834996    0.73018952    -0.15300000
opls_145-86    C    0.02567996    0.94346987    0.71502974    -0.08760000
opls_700-87    C    0.03476991    0.97049997    0.77960970    0.07580000
opls_142-88    C    0.08012994    0.90175002    0.77411037    0.01490000
opls_700-89    C    0.09816998    0.88820001    0.81059011    0.06670000
opls_145-90    C    0.09568992    0.86443001    0.73708042    -0.10620000
opls_145-91    C    0.11325999    0.85181000    0.76491960    -0.10620000
opls_700-92    C    0.13229003    0.86153991    0.87228988    0.07940000
opls_145-93    C    0.13506998    0.88553986    0.94579957    -0.08510000
opls_145-94    C    0.11805996    0.89872985    0.91567992    -0.08760000
opls_700-95    C    0.15215996    0.84946991    0.89705965    0.00120000
opls_624-96    C    0.14282997    0.81995989    0.93660977    0.07480000
opls_624-97    C    0.16270004    0.81005996    0.94913973    0.07480000
opls_700-98    C    0.19301001    0.82821002    0.91545964    0.00530000
opls_145-99    C    0.20270004    0.85795997    0.88307019    -0.08740000
opls_145-100    C    0.18267996    0.86844987    0.87555047    -0.08760000
opls_700-101    C    0.21384004    0.81691997    0.89652010    0.06980000
opls_145-102    C    0.20521002    0.79108001    0.82375957    -0.08500000
opls_145-103    C    0.22419001    0.77948988    0.81104038    -0.08520000
opls_700-104    C    0.25267004    0.79431991    0.86667993    0.06450000
opls_145-105    C    0.26227997    0.82158994    0.92903958    -0.08500000
opls_145-106    C    0.24291990    0.83264982    0.94522994    -0.08520000
opls_142-107    C    0.27203994    0.78112991    0.86631020    0.01490000
opls_558-108    C    0.11842003    0.77360004    0.01125969    0.22360000
opls_145-109    C    0.27730991    0.73746994    0.83208959    0.20760000
opls_145-110    C    0.26526994    0.71085002    0.76274006    -0.12660000
opls_145-111    C    0.27896994    0.69361997    0.76399965    -0.08520000
opls_700-112    C    0.30492996    0.70251000    0.83686984    0.07440000
opls_145-113    C    0.31677004    0.72905001    0.90846005    -0.08760000
opls_145-114    C    0.30311999    0.74635997    0.90652990    -0.15290000
opls_142-115    C    0.08697998    0.79666000    0.97638987    0.06320000
opls_142-116    C    0.16086997    0.76573989    0.06346010    0.06370000
opls_143-117    C    0.08489002    0.81403987    0.09082961    -0.33330000
opls_143-118    C    0.14942002    0.73517002    0.00265990    -0.33320000
opls_700-119    C    0.01697987    0.98565983    0.77064018    0.07490000
opls_700-120    C    0.31950009    0.68412000    0.83857000    0.07470000
opls_145-121    C    0.30237000    0.65296995    0.83876020    -0.07130000
opls_145-122    C    0.98579998    0.96899999    0.76995022    -0.07130000
opls_145-123    C    0.27260002    0.68448002    0.41036012    -0.08520000
opls_145-124    C    0.25647989    0.69927986    0.41958971    -0.12670000
opls_145-125    C    0.26594998    0.72619987    0.35500975    0.20910000
opls_145-126    C    0.29188992    0.73803992    0.27880038    -0.15300000
opls_145-127    C    0.30788005    0.72309004    0.26857029    -0.08750000
opls_700-128    C    0.29861003    0.69625992    0.33513959    0.07470000
opls_142-129    C    0.25175999    0.76343997    0.30686955    0.01490000
opls_700-130    C    0.23340990    0.77700996    0.33702996    0.06680000
opls_145-131    C    0.23580003    0.80000999    0.25808014    -0.10620000
opls_145-132    C    0.21817003    0.81279003    0.28083048    -0.10620000
opls_700-133    C    0.19892994    0.80382986    0.38741958    0.07600000
opls_145-134    C    0.19612002    0.78049001    0.46586963    -0.08520000
opls_145-135    C    0.21334984    0.76725985    0.44152005    -0.08760000
opls_700-136    C    0.17902989    0.81607987    0.40659977    0.00150000
opls_624-137    C    0.18839996    0.84588997    0.44047977    0.07790000
opls_624-138    C    0.16869993    0.85608999    0.44643034    0.07480000
opls_700-139    C    0.13853991    0.83788999    0.41049016    0.00540000
opls_145-140    C    0.12872003    0.80780999    0.38458986    -0.08760000
opls_145-141    C    0.14855008    0.79703999    0.38455977    -0.08510000
opls_700-142    C    0.11810985    0.84930988    0.38317985    0.07030000
opls_145-143    C    0.12752008    0.87484999    0.30705975    -0.08500000
opls_145-144    C    0.10882992    0.88654998    0.28668012    -0.08520000
opls_700-145    C    0.07989998    0.87210993    0.33781987    0.06670000
opls_145-146    C    0.06964007    0.84516995    0.40386030    -0.08500000
opls_145-147    C    0.08865003    0.83398999    0.42751021    -0.08500000
opls_142-148    C    0.06064001    0.88534986    0.32903958    0.01490000
opls_558-149    C    0.21278990    0.89267998    0.50987977    0.22360000
opls_145-150    C    0.05563988    0.92881985    0.28579996    0.20730000
opls_145-151    C    0.06805985    0.95517986    0.21436986    -0.12670000
opls_145-152    C    0.05436004    0.97240991    0.21039020    -0.08520000
opls_700-153    C    0.02801993    0.96379999    0.27989015    0.07450000
opls_145-154    C    0.01577986    0.93749990    0.35332027    -0.08750000
opls_145-155    C    0.02940993    0.92017996    0.35661967    -0.15300000
opls_142-156    C    0.24388985    0.86880988    0.48662966    0.06310000
opls_142-157    C    0.17027001    0.90108992    0.55222952    0.06370000
opls_143-158    C    0.24458009    0.85067003    0.60150026    -0.33320000
opls_143-159    C    0.18228986    0.93142983    0.48838029    -0.33320000
opls_700-160    C    0.31639998    0.68105989    0.32935011    0.07520000
opls_700-161    C    0.01363995    0.98236999    0.27776009    0.07470000
opls_145-162    C    0.03094997    0.01350007    0.27760968    -0.07130000
opls_145-163    C    0.34758000    0.69767001    0.32889984    -0.07130000
opls_145-164    C    0.01762991    0.07804993    0.85729022    -0.08520000
opls_145-165    C    0.03261991    0.10886994    0.87149026    -0.12670000
opls_145-166    C    0.05982005    0.12666997    0.80963037    0.20910000
opls_145-167    C    0.07165005    0.11305005    0.73018952    -0.15300000
opls_145-168    C    0.05653012    0.08221007    0.71502974    -0.08760000
opls_700-169    C    0.02950004    0.06426998    0.77960970    0.07580000
opls_142-170    C    0.09824996    0.17838009    0.77411037    0.01490000
opls_700-171    C    0.11180001    0.20997007    0.81059011    0.06670000
opls_145-172    C    0.13556991    0.23125993    0.73708042    -0.10620000
opls_145-173    C    0.14818993    0.26145002    0.76491960    -0.10620000
opls_700-174    C    0.13845994    0.27075000    0.87228988    0.07950000
opls_145-175    C    0.11446011    0.24953006    0.94579957    -0.08510000
opls_145-176    C    0.10126997    0.21932998    0.91567992    -0.08760000
opls_700-177    C    0.15052999    0.30269000    0.89705965    0.00120000
opls_624-178    C    0.18004002    0.32287008    0.93660977    0.07480000
opls_624-179    C    0.18993995    0.35264001    0.94913973    0.07490000
opls_700-180    C    0.17178998    0.36479990    0.91545964    0.00530000
opls_145-181    C    0.14203993    0.34473991    0.88307019    -0.08740000
opls_145-182    C    0.13154991    0.31422997    0.87555047    -0.08760000
opls_700-183    C    0.18308004    0.39691991    0.89652010    0.06980000
opls_145-184    C    0.20891991    0.41412998    0.82375957    -0.08500000
opls_145-185    C    0.22051010    0.44470006    0.81104038    -0.08520000
opls_700-186    C    0.20567992    0.45834995    0.86667993    0.06450000
opls_145-187    C    0.17841006    0.44068997    0.92903958    -0.08490000
opls_145-188    C    0.16734988    0.41026993    0.94522994    -0.08510000
opls_142-189    C    0.21886994    0.49090988    0.86631020    0.01490000
opls_558-190    C    0.22640002    0.34482003    0.01125969    0.22360000
opls_145-191    C    0.26252990    0.53983999    0.83208959    0.20760000
opls_145-192    C    0.28914988    0.55441988    0.76274006    -0.12660000
opls_145-193    C    0.30637990    0.58534998    0.76399965    -0.08520000
opls_700-194    C    0.29748996    0.60241999    0.83686984    0.07450000
opls_145-195    C    0.27095007    0.58772003    0.90846005    -0.08760000
opls_145-196    C    0.25363991    0.55675997    0.90652990    -0.15290000
opls_142-197    C    0.20333998    0.29031992    0.97638987    0.06320000
opls_142-198    C    0.23426003    0.39513005    0.06346010    0.06370000
opls_143-199    C    0.18595999    0.27084988    0.09082961    -0.33330000
opls_143-200    C    0.26483008    0.41425006    0.00265990    -0.33320000
opls_700-201    C    0.01434006    0.03132008    0.77064018    0.07490000
opls_700-202    C    0.31588000    0.63537988    0.83857000    0.07470000
opls_145-203    C    0.34703001    0.64940000    0.83876020    -0.07130000
opls_145-204    C    0.03100003    0.01679990    0.76995022    -0.07130000
opls_145-205    C    0.31552002    0.58811999    0.41036012    -0.08520000
opls_145-206    C    0.30071986    0.55719988    0.41958971    -0.12670000
opls_145-207    C    0.27379988    0.53974988    0.35500975    0.20910000
opls_145-208    C    0.26196004    0.55384989    0.27880038    -0.15300000
opls_145-209    C    0.27690993    0.58478998    0.26857029    -0.08750000
opls_700-210    C    0.30373991    0.60234985    0.33513959    0.07470000
opls_142-211    C    0.23655994    0.48831987    0.30686955    0.01490000
opls_700-212    C    0.22299010    0.45640006    0.33702996    0.06680000
opls_145-213    C    0.19999011    0.43579006    0.25808014    -0.10620000
opls_145-214    C    0.18720994    0.40538001    0.28083048    -0.10620000
opls_700-215    C    0.19616998    0.39509986    0.38741958    0.07600000
opls_145-216    C    0.21951004    0.41562996    0.46586963    -0.08520000
opls_145-217    C    0.23273998    0.44608996    0.44152005    -0.08760000
opls_700-218    C    0.18391999    0.36294989    0.40659977    0.00150000
opls_624-219    C    0.15410988    0.34250991    0.44047977    0.07790000
opls_624-220    C    0.14391003    0.31260991    0.44643034    0.07480000
opls_700-221    C    0.16211001    0.30065000    0.41049016    0.00540000
opls_145-222    C    0.19218995    0.32090998    0.38458986    -0.08750000
opls_145-223    C    0.20295992    0.35151003    0.38455977    -0.08510000
opls_700-224    C    0.15069002    0.26879989    0.38317985    0.07030000
opls_145-225    C    0.12515000    0.25267008    0.30705975    -0.08490000
opls_145-226    C    0.11344991    0.22228000    0.28668012    -0.08520000
opls_700-227    C    0.12789003    0.20779001    0.33781987    0.06670000
opls_145-228    C    0.15483004    0.22447005    0.40386030    -0.10610000
opls_145-229    C    0.16601002    0.25465992    0.42751021    -0.08500000
opls_142-230    C    0.11465001    0.17529001    0.32903958    0.01490000
opls_558-231    C    0.10732002    0.32011005    0.50987977    0.22360000
opls_145-232    C    0.07117993    0.12682002    0.28579996    0.20740000
opls_145-233    C    0.04481993    0.11288003    0.21436986    -0.12660000
opls_145-234    C    0.02758991    0.08194993    0.21039020    -0.08520000
opls_700-235    C    0.03620008    0.06422004    0.27989015    0.07450000
opls_145-236    C    0.06249998    0.07828010    0.35332027    -0.08750000
opls_145-237    C    0.07982003    0.10922995    0.35661967    -0.15300000
opls_142-238    C    0.13118993    0.37508004    0.48662966    0.06310000
opls_142-239    C    0.09890986    0.26917988    0.55222952    0.06370000
opls_143-240    C    0.14932995    0.39390995    0.60150026    -0.33300000
opls_143-241    C    0.06856997    0.25086003    0.48838029    -0.33320000
opls_700-242    C    0.31893996    0.63533993    0.32935011    0.07510000
opls_700-243    C    0.01763001    0.03126991    0.27776009    0.07470000
opls_145-244    C    0.98649994    0.01745001    0.27760968    -0.07130000
opls_145-245    C    0.30232984    0.64990983    0.32889984    -0.07130000
opls_750-246    N    0.84190000    0.91686992    0.83440984    -0.31160000
opls_557-247    N    0.68204010    0.88429002    0.97375035    -0.02660000
opls_557-248    N    0.63388992    0.85175984    0.99858029    -0.02510000
opls_750-249    N    0.49203992    0.73816999    0.82886976    -0.31160000
opls_750-250    N    0.49187999    0.75079000    0.37356015    -0.31150000
opls_557-251    N    0.65274994    0.78459000    0.47834040    -0.02660000
opls_557-252    N    0.70120003    0.81690999    0.49284030    -0.02510000
opls_750-253    N    0.84127990    0.92879987    0.28918961    -0.31140000
opls_750-254    N    0.08313000    0.92502994    0.83440984    -0.31150000
opls_557-255    N    0.11571003    0.79775003    0.97375035    -0.02660000
opls_557-256    N    0.14824001    0.78212983    0.99858029    -0.02510000
opls_750-257    N    0.26182990    0.75386987    0.82886976    -0.31160000
opls_750-258    N    0.24920983    0.74108983    0.37356015    -0.31150000
opls_557-259    N    0.21541004    0.86815999    0.47834040    -0.02660000
opls_557-260    N    0.18309000    0.88429002    0.49284030    -0.02510000
opls_750-261    N    0.07119983    0.91247984    0.28918961    -0.31150000
opls_750-262    N    0.07496990    0.15809992    0.83440984    -0.31160000
opls_557-263    N    0.20225006    0.31795995    0.97375035    -0.02660000
opls_557-264    N    0.21787004    0.36610989    0.99858029    -0.02510000
opls_750-265    N    0.24612988    0.50795992    0.82886976    -0.31160000
opls_750-266    N    0.25890988    0.50811995    0.37356015    -0.31160000
opls_557-267    N    0.13184001    0.34725001    0.47834040    -0.02660000
opls_557-268    N    0.11570997    0.29879999    0.49284030    -0.02510000
opls_750-269    N    0.08751997    0.15872006    0.28918961    -0.31160000
F2_Au1f1-270    Au    0.64515987    0.90618982    0.89275976    0.22080000
F2_Au1f1-271    Au    0.68826989    0.76177996    0.38901979    0.22070000
F2_Au1f1-272    Au    0.09381003    0.73896992    0.89275976    0.22070000
F2_Au1f1-273    Au    0.23822004    0.92648997    0.38901979    0.22070000
F2_Au1f1-274    Au    0.26102999    0.35484004    0.89275976    0.22070000
F2_Au1f1-275    Au    0.07351007    0.31173007    0.38901979    0.22070000
MOF2_Cl-276    Cl    0.63384996    0.93361988    0.75956972    -0.25240000
MOF2_Cl-277    Cl    0.69774004    0.73341990    0.25317956    -0.25250000
MOF2_Cl-278    Cl    0.06638000    0.70022984    0.75956972    -0.25250000
MOF2_Cl-279    Cl    0.26657989    0.96431981    0.25317956    -0.25250000
MOF2_Cl-280    Cl    0.29977011    0.36615006    0.75956972    -0.25250000
MOF2_Cl-281    Cl    0.03567996    0.30226007    0.25317956    -0.25250000
opls_146-282    H    0.93619002    0.93174989    0.90891032    0.04500000
opls_146-283    H    0.88019996    0.90289997    0.93410028    0.04500000
opls_146-284    H    0.87280990    0.96645991    0.67790954    0.04500000
opls_146-285    H    0.92864990    0.99473985    0.64978020    0.04500000
opls_144-286    H    0.82810998    0.93661984    0.69173015    0.02650000
opls_146-287    H    0.77597995    0.92081986    0.65339984    0.04500000
opls_146-288    H    0.72138007    0.88785997    0.70012033    0.04500000
opls_146-289    H    0.74312986    0.84872991    0.03067958    0.04500000
opls_146-290    H    0.79769987    0.87963981    0.97660045    0.04500000
opls_146-291    H    0.64671995    0.77280987    0.86248969    0.04500000
opls_146-292    H    0.70173987    0.80897992    0.85164048    0.04500000
opls_146-293    H    0.59682005    0.81744002    0.77448010    0.04500000
opls_146-294    H    0.54133000    0.78339986    0.75539015    0.04500000
opls_146-295    H    0.54887006    0.71400002    0.96686043    0.04500000
opls_146-296    H    0.60384996    0.74930000    0.99822997    0.04500000
opls_144-297    H    0.49873998    0.70386992    0.89901018    0.02650000
opls_146-298    H    0.45895003    0.75597002    0.70426011    0.04500000
opls_146-299    H    0.40304000    0.73089003    0.70563033    0.04500000
opls_146-300    H    0.39894001    0.66228990    0.96887015    0.04500000
opls_146-301    H    0.45489001    0.68711997    0.96535046    0.04440000
opls_144-302    H    0.71414990    0.93030984    0.89839979    0.02650000
opls_144-303    H    0.59932999    0.82300003    0.14772002    0.02650000
opls_144-304    H    0.74811991    0.91037991    0.07635009    0.10310000
opls_144-305    H    0.72475995    0.92140982    0.19098972    0.10310000
opls_144-306    H    0.57076987    0.83840981    0.91669012    0.10320000
opls_144-307    H    0.58644993    0.87131000    0.04322022    0.10320000
MOF2_H_-308    H    0.66404000    0.94870982    0.75956972    0.37340000
opls_146-309    H    0.36448987    0.72288983    0.83906976    0.04500000
opls_146-310    H    0.96968994    0.02597003    0.76880998    0.04500000
opls_146-311    H    0.39792998    0.73528988    0.46408990    0.04500000
opls_146-312    H    0.45409990    0.76465985    0.48028026    0.04510000
opls_146-313    H    0.45998010    0.70007003    0.22511038    0.04500000
opls_146-314    H    0.40395002    0.67131999    0.20573999    0.04500000
opls_144-315    H    0.50451007    0.73164003    0.22358975    0.02650000
opls_146-316    H    0.55620992    0.74771990    0.17414046    0.04500000
opls_146-317    H    0.61120003    0.78058989    0.21246009    0.04440000
opls_146-318    H    0.59248994    0.82028994    0.55008006    0.04500000
opls_146-319    H    0.53738004    0.78886000    0.50648041    0.04500000
opls_146-320    H    0.68754994    0.89571990    0.36320974    0.04510000
opls_146-321    H    0.63238997    0.85992984    0.36647032    0.04440000
opls_146-322    H    0.73564000    0.84943995    0.26135043    0.04500000
opls_146-323    H    0.79084991    0.88297981    0.22842046    0.04500000
opls_146-324    H    0.78658992    0.95435995    0.43863987    0.04500000
opls_146-325    H    0.73202991    0.91972983    0.48310998    0.04500000
opls_144-326    H    0.83550988    0.96376980    0.35736979    0.02650000
opls_146-327    H    0.87323000    0.91039989    0.15851973    0.04500000
opls_146-328    H    0.92914003    0.93546989    0.15041000    0.04440000
opls_146-329    H    0.93557997    0.00548987    0.41101030    0.04500000
opls_146-330    H    0.87967005    0.98070997    0.41682015    0.04500000
opls_144-331    H    0.61982990    0.73798000    0.41213986    0.02650000
opls_144-332    H    0.73728984    0.84637983    0.63502023    0.02650000
opls_144-333    H    0.58138000    0.73838995    0.60439014    0.10310000
opls_144-334    H    0.61673003    0.77193003    0.68445982    0.10310000
opls_144-335    H    0.73771993    0.79666998    0.42708032    0.10310000
opls_144-336    H    0.77424003    0.82976993    0.50196994    0.10310000
MOF2_H_-337    H    0.72792988    0.74850984    0.25317956    0.37330000
opls_146-338    H    0.96850997    0.94379992    0.27736028    0.04500000
opls_146-339    H    0.36356002    0.64060985    0.32816039    0.04500000
opls_146-340    H    0.06824980    0.00443980    0.90891032    0.04510000
opls_146-341    H    0.09709991    0.97729983    0.93410028    0.04500000
opls_146-342    H    0.03353983    0.90634985    0.67790954    0.04500000
opls_146-343    H    0.00526003    0.93390998    0.64978020    0.04500000
opls_144-344    H    0.06337996    0.89148985    0.69173015    0.02650000
opls_146-345    H    0.07917994    0.85515999    0.65339984    0.04500000
opls_146-346    H    0.11213993    0.83351989    0.70012033    0.04500000
opls_146-347    H    0.15127003    0.89439992    0.03067958    0.04500000
opls_146-348    H    0.12035985    0.91805983    0.97660045    0.04500000
opls_146-349    H    0.22719003    0.87391000    0.86248969    0.04500000
opls_146-350    H    0.19101998    0.89275989    0.85164048    0.04500000
opls_146-351    H    0.18255998    0.77938001    0.77448010    0.04500000
opls_146-352    H    0.21659991    0.75792990    0.75539015    0.04500000
opls_146-353    H    0.28599982    0.83486983    0.96686043    0.04500000
opls_146-354    H    0.25070001    0.85455982    0.99822997    0.04500000
opls_144-355    H    0.29612998    0.79486992    0.89901018    0.02650000
opls_146-356    H    0.24402988    0.70297988    0.70426011    0.04500000
opls_146-357    H    0.26910989    0.67214988    0.70563033    0.04500000
opls_146-358    H    0.33770982    0.73663982    0.96887015    0.04500000
opls_146-359    H    0.31288001    0.76775991    0.96535046    0.04500000
opls_144-360    H    0.06968994    0.78384000    0.89839979    0.02650000
opls_144-361    H    0.17700003    0.77632988    0.14772002    0.02650000
opls_144-362    H    0.08962004    0.83773995    0.07635009    0.10310000
opls_144-363    H    0.07858994    0.80334999    0.19098972    0.10310000
opls_144-364    H    0.16159000    0.73237004    0.91669012    0.10310000
opls_144-365    H    0.12869008    0.71513999    0.04322022    0.10310000
MOF2_H_-366    H    0.05129002    0.71532000    0.75956972    0.36740000
opls_146-367    H    0.27710991    0.64160000    0.83906976    0.04500000
opls_146-368    H    0.97402998    0.94372002    0.76880998    0.04500000
opls_146-369    H    0.26470994    0.66263993    0.46408990    0.04500000
opls_146-370    H    0.23533997    0.68943986    0.48028026    0.04500000
opls_146-371    H    0.29992992    0.75990997    0.22511038    0.04500000
opls_146-372    H    0.32868001    0.73262995    0.20573999    0.04500000
opls_144-373    H    0.26835998    0.77288001    0.22358975    0.02650000
opls_146-374    H    0.25227995    0.80848984    0.17414046    0.04500000
opls_146-375    H    0.21940996    0.83059983    0.21246009    0.04500000
opls_146-376    H    0.17970999    0.77219993    0.55008006    0.04500000
opls_146-377    H    0.21113984    0.74851983    0.50648041    0.04500000
opls_146-378    H    0.10428003    0.79183000    0.36320974    0.04500000
opls_146-379    H    0.14007000    0.77246983    0.36647032    0.04500000
opls_146-380    H    0.15056004    0.88619996    0.26135043    0.04500000
opls_146-381    H    0.11702000    0.90786980    0.22842046    0.04500000
opls_146-382    H    0.04563994    0.83223986    0.43863987    0.04500000
opls_146-383    H    0.08027004    0.81229995    0.48310998    0.04500000
opls_144-384    H    0.03622999    0.87174992    0.35736979    0.02650000
opls_146-385    H    0.08959983    0.96282981    0.15851973    0.04500000
opls_146-386    H    0.06452982    0.99365981    0.15041000    0.04510000
opls_146-387    H    0.99450997    0.93009987    0.41101030    0.04440000
opls_146-388    H    0.01928992    0.89896002    0.41682015    0.04500000
opls_144-389    H    0.26201992    0.88184983    0.41213986    0.02650000
opls_144-390    H    0.15361987    0.89090988    0.63502023    0.02650000
opls_144-391    H    0.26160993    0.84297990    0.60439014    0.10250000
opls_144-392    H    0.22806989    0.84479994    0.68445982    0.10310000
opls_144-393    H    0.20332999    0.94104988    0.42708032    0.10310000
opls_144-394    H    0.17022995    0.94447999    0.50196994    0.10250000
MOF2_H_-395    H    0.25148990    0.97940997    0.25317956    0.36730000
opls_146-396    H    0.05620001    0.02470999    0.27736028    0.04500000
opls_146-397    H    0.35938998    0.72294998    0.32816039    0.04500000
opls_146-398    H    0.99556007    0.06381009    0.90891032    0.04500000
opls_146-399    H    0.02270002    0.11979997    0.93410028    0.04500000
opls_146-400    H    0.09364996    0.12719002    0.67790954    0.04500000
opls_146-401    H    0.06608996    0.07134995    0.64978020    0.04500000
opls_144-402    H    0.10850995    0.17189008    0.69173015    0.02650000
opls_146-403    H    0.14484000    0.22401992    0.65339984    0.04500000
opls_146-404    H    0.16647988    0.27861992    0.70012033    0.04500000
opls_146-405    H    0.10560000    0.25686995    0.03067958    0.04500000
opls_146-406    H    0.08193987    0.20229991    0.97660045    0.04500000
opls_146-407    H    0.12608992    0.35327991    0.86248969    0.04510000
opls_146-408    H    0.10724004    0.29825997    0.85164048    0.04500000
opls_146-409    H    0.22061997    0.40317997    0.77448010    0.04500000
opls_146-410    H    0.24206997    0.45867001    0.75539015    0.04500000
opls_146-411    H    0.16513001    0.45112993    0.96686043    0.04500000
opls_146-412    H    0.14543992    0.39614994    0.99822997    0.04500000
opls_144-413    H    0.20512994    0.50125994    0.89901018    0.02650000
opls_146-414    H    0.29701998    0.54104988    0.70426011    0.04500000
opls_146-415    H    0.32785001    0.59695986    0.70563033    0.04500000
opls_146-416    H    0.26335994    0.60105984    0.96887015    0.04500000
opls_146-417    H    0.23223987    0.54510991    0.96535046    0.04500000
opls_144-418    H    0.21616005    0.28584993    0.89839979    0.02650000
opls_144-419    H    0.22366987    0.40066987    0.14772002    0.02650000
opls_144-420    H    0.16225994    0.25187992    0.07635009    0.10310000
opls_144-421    H    0.19665000    0.27523996    0.19098972    0.10310000
opls_144-422    H    0.26763002    0.42922991    0.91669012    0.10320000
opls_144-423    H    0.28485999    0.41355001    0.04322022    0.10320000
MOF2_H_-424    H    0.28468006    0.33595997    0.75956972    0.37330000
opls_146-425    H    0.35839991    0.63550995    0.83906976    0.04500000
opls_146-426    H    0.05627989    0.03030995    0.76880998    0.04500000
opls_146-427    H    0.33735997    0.60206997    0.46408990    0.04500000
opls_146-428    H    0.31055990    0.54589985    0.48028026    0.04500000
opls_146-429    H    0.24008998    0.54002000    0.22511038    0.04500000
opls_146-430    H    0.26736985    0.59604984    0.20573999    0.04500000
opls_144-431    H    0.22711995    0.49548995    0.22358975    0.02650000
opls_146-432    H    0.19151002    0.44379004    0.17414046    0.04510000
opls_146-433    H    0.16940008    0.38880007    0.21246009    0.04500000
opls_146-434    H    0.22779995    0.40750990    0.55008006    0.04500000
opls_146-435    H    0.25148001    0.46261995    0.50648041    0.04500000
opls_146-436    H    0.20816992    0.31244988    0.36320974    0.04500000
opls_146-437    H    0.22753001    0.36760987    0.36647032    0.04500000
opls_146-438    H    0.11379985    0.26435987    0.26135043    0.04500000
opls_146-439    H    0.09213006    0.20914994    0.22842046    0.04500000
opls_146-440    H    0.16776003    0.21340995    0.43863987    0.04500000
opls_146-441    H    0.18769994    0.26797000    0.48310998    0.04500000
opls_144-442    H    0.12825002    0.16449005    0.35736979    0.02650000
opls_146-443    H    0.03717006    0.12677008    0.15851973    0.04500000
opls_146-444    H    0.00634004    0.07086009    0.15041000    0.04500000
opls_146-445    H    0.06989995    0.06442002    0.41101030    0.04500000
opls_146-446    H    0.10104003    0.12033001    0.41682015    0.04500000
opls_144-447    H    0.11815007    0.38016995    0.41213986    0.02660000
opls_144-448    H    0.10908999    0.26271007    0.63502023    0.02650000
opls_144-449    H    0.15701996    0.41861994    0.60439014    0.10310000
opls_144-450    H    0.15520008    0.38327002    0.68445982    0.10310000
opls_144-451    H    0.05894998    0.26227992    0.42708032    0.10310000
opls_144-452    H    0.05552002    0.22576006    0.50196994    0.10310000
MOF2_H_-453    H    0.02058991    0.27206998    0.25317956    0.37330000
opls_146-454    H    0.97529002    0.03149009    0.27736028    0.04500000
opls_146-455    H    0.27704989    0.63643995    0.32816039    0.04500000
