#======================================================================
# Crystal Data Generated By AuToFF
#----------------------------------------------------------------------

data_AuToFF_phase_1

_cell_length_a                         47.6000
_cell_length_b                         51.0000
_cell_length_c                         7.6800
_cell_angle_alpha                      90.00
_cell_angle_beta                       72.00
_cell_angle_gamma                      90.00
_symmetry_space_group_name_H-M_alt     'P 1'
_symmetry_space_group_IT_number        1

loop_
_space_group_symop_operation_xyz
   'x, y, z'

loop_
   _atom_site_label
   _atom_site_type_symbol
   _atom_site_fract_x
   _atom_site_fract_y
   _atom_site_fract_z
   _atom_site_charge
opls_700-0    C    0.03028995    0.47592000    0.24460064    0.02650000
opls_700-1    C    0.53028995    0.97592000    0.24460064    0.02650000
opls_700-2    C    0.96971007    0.47592000    0.25540963    0.02650000
opls_700-3    C    0.46971007    0.97592000    0.25540963    0.02650000
opls_700-4    C    0.96971007    0.52408000    0.25540963    0.02650000
opls_700-5    C    0.46971007    0.02408000    0.25540963    0.02580000
opls_700-6    C    0.03028995    0.52408000    0.24460064    0.02650000
opls_700-7    C    0.53028995    0.02408000    0.24460064    0.02580000
opls_145-8    C    0.01468003    0.54745000    0.24613950    -0.12210000
opls_145-9    C    0.51468003    0.04744000    0.24613950    -0.12210000
opls_145-10    C    0.98531998    0.54745000    0.25387077    -0.12210000
opls_145-11    C    0.48531998    0.04744000    0.25387077    -0.12210000
opls_145-12    C    0.98531998    0.45255000    0.25387077    -0.12210000
opls_145-13    C    0.48531998    0.95255000    0.25387077    -0.12210000
opls_145-14    C    0.01468003    0.45255000    0.24613950    -0.12210000
opls_145-15    C    0.51468003    0.95255000    0.24613950    -0.12210000
opls_700-16    C    0.93941004    0.47599000    0.26358037    0.03060000
opls_700-17    C    0.43941004    0.97599000    0.26358037    0.03060000
opls_700-18    C    0.06058997    0.47599000    0.23642990    0.03060000
opls_700-19    C    0.56058997    0.97599000    0.23642990    0.03060000
opls_700-20    C    0.06058997    0.52401000    0.23642990    0.03060000
opls_700-21    C    0.56058997    0.02401000    0.23642990    0.03060000
opls_700-22    C    0.93941004    0.52401000    0.26358037    0.03060000
opls_700-23    C    0.43941004    0.02401000    0.26358037    0.03060000
opls_700-24    C    0.92108000    0.45178000    0.27904016    0.07260000
opls_700-25    C    0.42108000    0.95178000    0.27904016    0.07260000
opls_700-26    C    0.07892007    0.45178000    0.22096053    0.07290000
opls_700-27    C    0.57892007    0.95178000    0.22096053    0.07290000
opls_700-28    C    0.07892007    0.54822000    0.22096053    0.07290000
opls_700-29    C    0.57892007    0.04822000    0.22096053    0.07290000
opls_700-30    C    0.92108000    0.54822000    0.27904016    0.07260000
opls_700-31    C    0.42108000    0.04822000    0.27904016    0.07260000
opls_145-32    C    0.89264995    0.45044000    0.40791007    -0.12450000
opls_145-33    C    0.39264995    0.95044000    0.40791007    -0.12450000
opls_145-34    C    0.10735007    0.45044000    0.09210020    -0.12450000
opls_145-35    C    0.60735007    0.95044000    0.09210020    -0.12450000
opls_145-36    C    0.10735007    0.54956000    0.09210020    -0.12450000
opls_145-37    C    0.60735007    0.04956000    0.09210020    -0.12450000
opls_145-38    C    0.89264995    0.54956000    0.40791007    -0.12450000
opls_145-39    C    0.39264995    0.04956000    0.40791007    -0.12450000
opls_145-40    C    0.87547990    0.42772000    0.42330003    -0.16030000
opls_145-41    C    0.37547990    0.92772000    0.42330003    -0.16030000
opls_145-42    C    0.12451996    0.42772000    0.07670065    -0.16030000
opls_145-43    C    0.62451996    0.92772000    0.07670065    -0.16030000
opls_145-44    C    0.12451996    0.57228000    0.07670065    -0.16030000
opls_145-45    C    0.62451996    0.07228000    0.07670065    -0.16030000
opls_145-46    C    0.87547990    0.57228000    0.42330003    -0.16030000
opls_145-47    C    0.37547990    0.07228000    0.42330003    -0.16030000
opls_145-48    C    0.11329000    0.59413000    0.18541068    0.20980000
opls_145-49    C    0.61329000    0.09413000    0.18541068    0.20980000
opls_145-50    C    0.88671007    0.59413000    0.31459000    0.20980000
opls_145-51    C    0.38671007    0.09413000    0.31459000    0.20980000
opls_145-52    C    0.88671007    0.40587000    0.31459000    0.20980000
opls_145-53    C    0.38671007    0.90587000    0.31459000    0.20980000
opls_145-54    C    0.11329000    0.40587000    0.18541068    0.20980000
opls_145-55    C    0.61329000    0.90587000    0.18541068    0.20980000
opls_145-56    C    0.91449005    0.40744000    0.18176068    -0.15410000
opls_145-57    C    0.41449005    0.90744000    0.18176068    -0.15410000
opls_145-58    C    0.08550996    0.40744000    0.31824959    -0.15410000
opls_145-59    C    0.58550996    0.90744000    0.31824959    -0.15410000
opls_145-60    C    0.08550996    0.59256000    0.31824959    -0.15410000
opls_145-61    C    0.58550996    0.09256000    0.31824959    -0.15410000
opls_145-62    C    0.91449005    0.59256000    0.18176068    -0.15410000
opls_145-63    C    0.41449005    0.09256000    0.18176068    -0.15410000
opls_145-64    C    0.93105998    0.43034000    0.16210052    -0.12340000
opls_145-65    C    0.43105998    0.93034000    0.16210052    -0.12340000
opls_145-66    C    0.06894009    0.43034000    0.33790017    -0.12340000
opls_145-67    C    0.56894009    0.93034000    0.33790017    -0.12340000
opls_145-68    C    0.06894009    0.56966000    0.33790017    -0.12340000
opls_145-69    C    0.56894009    0.06966000    0.33790017    -0.12340000
opls_145-70    C    0.93105998    0.56966000    0.16210052    -0.12340000
opls_145-71    C    0.43105998    0.06966000    0.16210052    -0.12340000
opls_567-72    C    0.17808008    0.69330000    0.19177011    -0.00340000
opls_567-73    C    0.67808008    0.19330000    0.19177011    -0.00340000
opls_567-74    C    0.82192000    0.69330000    0.30823057    -0.00340000
opls_567-75    C    0.32192000    0.19330000    0.30823057    -0.00340000
opls_567-76    C    0.82192000    0.30670000    0.30823057    -0.00340000
opls_567-77    C    0.32192000    0.80670000    0.30823057    -0.00340000
opls_567-78    C    0.17808008    0.30670000    0.19177011    -0.00340000
opls_567-79    C    0.67808008    0.80670000    0.19177011    -0.00340000
opls_567-80    C    0.20494997    0.70741000    0.19443026    -0.03220000
opls_567-81    C    0.70494997    0.20741000    0.19443026    -0.03220000
opls_567-82    C    0.79504989    0.70741000    0.30557043    -0.03220000
opls_567-83    C    0.29504989    0.20741000    0.30557043    -0.03220000
opls_567-84    C    0.79504989    0.29259000    0.30557043    -0.01020000
opls_567-85    C    0.29504989    0.79259000    0.30557043    -0.01020000
opls_567-86    C    0.20494997    0.29259000    0.19443026    -0.01020000
opls_567-87    C    0.70494997    0.79259000    0.19443026    -0.01020000
opls_567-88    C    0.23350992    0.69908000    0.11340054    -0.03560000
opls_567-89    C    0.73350992    0.19908000    0.11340054    -0.03560000
opls_567-90    C    0.76649009    0.69908000    0.38660973    -0.03560000
opls_567-91    C    0.26649009    0.19908000    0.38660973    -0.03560000
opls_716-92    C    0.76649009    0.30093000    0.38660973    -0.14410000
opls_716-93    C    0.26649009    0.80093000    0.38660973    -0.14280000
opls_716-94    C    0.23350992    0.30093000    0.11340054    -0.14410000
opls_716-95    C    0.73350992    0.80093000    0.11340054    -0.14450000
opls_716-96    C    0.25382991    0.71667000    0.12682038    0.00160000
opls_716-97    C    0.75382991    0.21667000    0.12682038    0.00160000
opls_716-98    C    0.74616995    0.71667000    0.37318031    0.00160000
opls_716-99    C    0.24616995    0.21667000    0.37318031    0.00160000
opls_716-100    C    0.74616995    0.28333000    0.37318031    -0.14310000
opls_716-101    C    0.24616995    0.78334000    0.37318031    -0.14120000
opls_716-102    C    0.25382991    0.28333000    0.12682038    -0.14310000
opls_716-103    C    0.75382991    0.78334000    0.12682038    -0.14120000
opls_567-104    C    0.24163005    0.73885000    0.22732954    -0.04940000
opls_567-105    C    0.74163005    0.23885000    0.22732954    -0.06560000
opls_567-106    C    0.75837009    0.73885000    0.27266977    -0.04940000
opls_567-107    C    0.25836997    0.23885000    0.27268072    -0.06560000
opls_567-108    C    0.75837009    0.26115000    0.27266977    -0.00520000
opls_567-109    C    0.25836997    0.76116000    0.27268072    -0.00420000
opls_567-110    C    0.24163005    0.26115000    0.22732954    -0.00520000
opls_567-111    C    0.74163005    0.76116000    0.22732954    -0.00420000
opls_465-112    C    0.18834003    0.17519000    0.69139977    0.51320000
opls_465-113    C    0.68834003    0.67519000    0.69139977    0.51320000
opls_465-114    C    0.81165998    0.17519000    0.80861049    0.51320000
opls_465-115    C    0.31165998    0.67519000    0.80861049    0.51320000
opls_468-116    C    0.13919992    0.18053000    0.89959078    0.07820000
opls_468-117    C    0.63919992    0.68053000    0.89959078    0.07820000
opls_468-118    C    0.86079994    0.18053000    0.60040991    0.07820000
opls_468-119    C    0.36079994    0.68053000    0.60040991    0.07820000
opls_135-120    C    0.11875999    0.20280000    0.98870088    -0.42130000
opls_135-121    C    0.61875999    0.70280000    0.98870088    -0.42130000
opls_135-122    C    0.88124008    0.20280000    0.51129980    -0.42130000
opls_135-123    C    0.38124008    0.70280000    0.51129980    -0.42130000
opls_142-124    C    0.87970007    0.35922000    0.30343053    0.07020000
opls_142-125    C    0.37970007    0.85922000    0.30343053    0.07020000
opls_142-126    C    0.12029994    0.35922000    0.19657973    0.07020000
opls_142-127    C    0.62029994    0.85922000    0.19657973    0.07020000
opls_142-128    C    0.12029994    0.64078000    0.19657973    0.07020000
opls_142-129    C    0.62029994    0.14078000    0.19657973    0.07020000
opls_142-130    C    0.87970007    0.64078000    0.30343053    0.07020000
opls_142-131    C    0.37970007    0.14078000    0.30343053    0.07020000
opls_567-132    C    0.86029000    0.33678000    0.30892059    -0.02930000
opls_567-133    C    0.36029000    0.83678000    0.30892059    -0.02930000
opls_567-134    C    0.13971007    0.33678000    0.19108009    -0.02930000
opls_567-135    C    0.63971007    0.83678000    0.19108009    -0.02930000
opls_567-136    C    0.13971007    0.66322000    0.19108009    -0.02930000
opls_567-137    C    0.63971007    0.16322000    0.19108009    -0.02930000
opls_567-138    C    0.86029000    0.66322000    0.30892059    -0.02930000
opls_567-139    C    0.36029000    0.16322000    0.30892059    -0.02930000
opls_716-140    C    0.84860996    0.29415000    0.28298999    -0.17100000
opls_716-141    C    0.34860996    0.79415000    0.28298999    -0.17100000
opls_716-142    C    0.15138990    0.29415000    0.21701070    -0.17100000
opls_716-143    C    0.65139006    0.79415000    0.21702028    -0.17100000
opls_716-144    C    0.15138990    0.70585000    0.21701070    -0.17100000
opls_716-145    C    0.65139006    0.20585000    0.21702028    -0.17100000
opls_716-146    C    0.84860996    0.70585000    0.28298999    -0.17100000
opls_716-147    C    0.34860996    0.20585000    0.28298999    -0.17100000
opls_716-148    C    0.87061001    0.31139000    0.28351983    -0.17140000
opls_716-149    C    0.37061001    0.81139000    0.28351983    -0.17140000
opls_716-150    C    0.12940009    0.31139000    0.21649044    -0.17140000
opls_716-151    C    0.62939988    0.81139000    0.21649044    -0.17140000
opls_716-152    C    0.12940009    0.68861000    0.21649044    -0.17140000
opls_716-153    C    0.62939988    0.18861000    0.21649044    -0.17140000
opls_716-154    C    0.87061001    0.68861000    0.28351983    -0.17140000
opls_716-155    C    0.37061001    0.18861000    0.28351983    -0.17140000
opls_716-156    C    0.28374000    0.70908000    0.02072942    -0.12970000
opls_716-157    C    0.78374000    0.20908000    0.02072942    -0.12970000
opls_716-158    C    0.71625993    0.70908000    0.47926989    -0.12970000
opls_716-159    C    0.21625993    0.20908000    0.47926989    -0.12970000
opls_567-160    C    0.28435006    0.68599000    0.93783089    -0.12590000
opls_567-161    C    0.78435006    0.18599000    0.93783089    -0.12590000
opls_567-162    C    0.71565001    0.68599000    0.56216979    -0.12590000
opls_567-163    C    0.21565001    0.18599000    0.56216979    -0.12590000
opls_145-164    C    0.57476002    0.00000000    0.23655038    -0.13740000
opls_700-165    C    0.51514999    0.00000000    0.24809046    -0.00580000
opls_145-166    C    0.07476002    0.50000000    0.23655038    -0.13740000
opls_700-167    C    0.01515011    0.50000000    0.24807951    -0.00580000
opls_145-168    C    0.42524000    0.00000000    0.26345989    -0.13740000
opls_700-169    C    0.48485003    0.00000000    0.25191981    -0.00580000
opls_145-170    C    0.92524000    0.50000000    0.26345989    -0.13740000
opls_700-171    C    0.98485003    0.50000000    0.25191981    -0.00580000
opls_700-172    C    0.03029009    0.47592000    0.74459996    0.02650000
opls_700-173    C    0.53029009    0.97592000    0.74459996    0.02650000
opls_700-174    C    0.96970993    0.47592000    0.75541031    0.02650000
opls_700-175    C    0.46970993    0.97592000    0.75541031    0.02650000
opls_700-176    C    0.96970993    0.52408000    0.75541031    0.02650000
opls_700-177    C    0.46970993    0.02408000    0.75541031    0.02580000
opls_700-178    C    0.03029009    0.52408000    0.74459996    0.02650000
opls_700-179    C    0.53029009    0.02408000    0.74459996    0.02580000
opls_145-180    C    0.01468010    0.54745000    0.74614019    -0.12210000
opls_145-181    C    0.51468010    0.04744000    0.74614019    -0.12210000
opls_145-182    C    0.98531991    0.54745000    0.75387008    -0.12210000
opls_145-183    C    0.48531991    0.04744000    0.75387008    -0.12210000
opls_145-184    C    0.98531991    0.45255000    0.75387008    -0.12210000
opls_145-185    C    0.48531991    0.95255000    0.75387008    -0.12210000
opls_145-186    C    0.01468010    0.45255000    0.74614019    -0.12210000
opls_145-187    C    0.51468010    0.95255000    0.74614019    -0.12210000
opls_700-188    C    0.93940990    0.47599000    0.76358105    0.03060000
opls_700-189    C    0.43940990    0.97599000    0.76358105    0.03060000
opls_700-190    C    0.06059004    0.47599000    0.73643058    0.03060000
opls_700-191    C    0.56059004    0.97599000    0.73643058    0.03060000
opls_700-192    C    0.06059004    0.52401000    0.73643058    0.03060000
opls_700-193    C    0.56059004    0.02401000    0.73643058    0.03060000
opls_700-194    C    0.93940990    0.52401000    0.76358105    0.03060000
opls_700-195    C    0.43940990    0.02401000    0.76358105    0.03060000
opls_700-196    C    0.92108007    0.45178000    0.77904084    0.07260000
opls_700-197    C    0.42108007    0.95178000    0.77904084    0.07260000
opls_700-198    C    0.07892000    0.45178000    0.72095984    0.07290000
opls_700-199    C    0.57892000    0.95178000    0.72095984    0.07290000
opls_700-200    C    0.07892000    0.54822000    0.72095984    0.07290000
opls_700-201    C    0.57892000    0.04822000    0.72095984    0.07290000
opls_700-202    C    0.92108007    0.54822000    0.77904084    0.07260000
opls_700-203    C    0.42108007    0.04822000    0.77904084    0.07260000
opls_145-204    C    0.89265002    0.45044000    0.90791075    -0.12450000
opls_145-205    C    0.39265002    0.95044000    0.90791075    -0.12450000
opls_145-206    C    0.10734993    0.45044000    0.59210089    -0.12450000
opls_145-207    C    0.60734993    0.95044000    0.59210089    -0.12450000
opls_145-208    C    0.10734993    0.54956000    0.59210089    -0.12450000
opls_145-209    C    0.60734993    0.04956000    0.59210089    -0.12450000
opls_145-210    C    0.89265002    0.54956000    0.90791075    -0.12450000
opls_145-211    C    0.39265002    0.04956000    0.90791075    -0.12450000
opls_145-212    C    0.87547997    0.42772000    0.92330072    -0.16030000
opls_145-213    C    0.37547997    0.92772000    0.92330072    -0.16030000
opls_145-214    C    0.12452010    0.42772000    0.57669997    -0.16030000
opls_145-215    C    0.62452010    0.92772000    0.57669997    -0.16030000
opls_145-216    C    0.12452010    0.57228000    0.57669997    -0.16030000
opls_145-217    C    0.62452010    0.07228000    0.57669997    -0.16030000
opls_145-218    C    0.87547997    0.57228000    0.92330072    -0.16030000
opls_145-219    C    0.37547997    0.07228000    0.92330072    -0.16030000
opls_145-220    C    0.11328993    0.59413000    0.68541000    0.20980000
opls_145-221    C    0.61328993    0.09413000    0.68541000    0.20980000
opls_145-222    C    0.88670993    0.59413000    0.81459069    0.20980000
opls_145-223    C    0.38670993    0.09413000    0.81459069    0.20980000
opls_145-224    C    0.88670993    0.40587000    0.81459069    0.20980000
opls_145-225    C    0.38670993    0.90587000    0.81459069    0.20980000
opls_145-226    C    0.11328993    0.40587000    0.68541000    0.20980000
opls_145-227    C    0.61328993    0.90587000    0.68541000    0.20980000
opls_145-228    C    0.91448998    0.40744000    0.68176000    -0.15410000
opls_145-229    C    0.41448998    0.90744000    0.68176000    -0.15410000
opls_145-230    C    0.08551003    0.40744000    0.81825027    -0.15410000
opls_145-231    C    0.58551003    0.90744000    0.81825027    -0.15410000
opls_145-232    C    0.08551003    0.59256000    0.81825027    -0.15410000
opls_145-233    C    0.58551003    0.09256000    0.81825027    -0.15410000
opls_145-234    C    0.91448998    0.59256000    0.68176000    -0.15410000
opls_145-235    C    0.41448998    0.09256000    0.68176000    -0.15410000
opls_145-236    C    0.93106012    0.43034000    0.66209983    -0.12340000
opls_145-237    C    0.43106012    0.93034000    0.66209983    -0.12340000
opls_145-238    C    0.06893995    0.43034000    0.83790085    -0.12570000
opls_145-239    C    0.56893995    0.93034000    0.83790085    -0.12570000
opls_145-240    C    0.06893995    0.56966000    0.83790085    -0.12570000
opls_145-241    C    0.56893995    0.06966000    0.83790085    -0.12570000
opls_145-242    C    0.93106012    0.56966000    0.66209983    -0.12340000
opls_145-243    C    0.43106012    0.06966000    0.66209983    -0.12340000
opls_567-244    C    0.17807994    0.69330000    0.69177080    -0.00340000
opls_567-245    C    0.67807994    0.19330000    0.69177080    -0.00340000
opls_567-246    C    0.82191992    0.69330000    0.80822989    -0.00340000
opls_567-247    C    0.32191992    0.19330000    0.80822989    -0.00340000
opls_567-248    C    0.82191992    0.30670000    0.80822989    -0.00340000
opls_567-249    C    0.32191992    0.80670000    0.80822989    -0.00340000
opls_567-250    C    0.17807994    0.30670000    0.69177080    -0.00340000
opls_567-251    C    0.67807994    0.80670000    0.69177080    -0.00340000
opls_567-252    C    0.20495004    0.70741000    0.69443094    -0.03220000
opls_567-253    C    0.70495004    0.20741000    0.69443094    -0.03220000
opls_567-254    C    0.79504997    0.70741000    0.80557111    -0.03220000
opls_567-255    C    0.29504997    0.20741000    0.80557111    -0.03220000
opls_567-256    C    0.79504997    0.29259000    0.80557111    -0.01020000
opls_567-257    C    0.29504997    0.79259000    0.80557111    -0.01020000
opls_567-258    C    0.20495004    0.29259000    0.69443094    -0.01020000
opls_567-259    C    0.70495004    0.79259000    0.69443094    -0.01020000
opls_567-260    C    0.23351006    0.69908000    0.61339985    -0.03560000
opls_567-261    C    0.73351006    0.19908000    0.61339985    -0.03560000
opls_567-262    C    0.76648995    0.69908000    0.88661042    -0.03560000
opls_567-263    C    0.26648995    0.19908000    0.88661042    -0.03560000
opls_716-264    C    0.76648995    0.30093000    0.88661042    -0.14410000
opls_716-265    C    0.26648995    0.80093000    0.88661042    -0.14280000
opls_716-266    C    0.23351006    0.30093000    0.61339985    -0.14410000
opls_716-267    C    0.73351006    0.80093000    0.61339985    -0.14450000
opls_716-268    C    0.25383005    0.71667000    0.62681969    0.00160000
opls_716-269    C    0.75383005    0.21667000    0.62681969    0.00160000
opls_716-270    C    0.74617003    0.71667000    0.87318099    0.00160000
opls_716-271    C    0.24617003    0.21667000    0.87318099    0.00160000
opls_716-272    C    0.74617003    0.28333000    0.87318099    -0.14310000
opls_716-273    C    0.24617003    0.78334000    0.87318099    -0.14120000
opls_716-274    C    0.25383005    0.28333000    0.62681969    -0.14310000
opls_716-275    C    0.75383005    0.78334000    0.62681969    -0.14120000
opls_567-276    C    0.24162991    0.73885000    0.72733023    -0.04940000
opls_567-277    C    0.74162991    0.23885000    0.72733023    -0.06560000
opls_567-278    C    0.75836995    0.73885000    0.77267046    -0.04940000
opls_567-279    C    0.25837011    0.23885000    0.77268004    -0.06560000
opls_567-280    C    0.75836995    0.26115000    0.77267046    -0.00520000
opls_567-281    C    0.25837011    0.76116000    0.77268004    -0.00420000
opls_567-282    C    0.24162991    0.26115000    0.72733023    -0.00520000
opls_567-283    C    0.74162991    0.76116000    0.72733023    -0.00420000
opls_465-284    C    0.18833989    0.17519000    0.19140046    0.51320000
opls_465-285    C    0.68833989    0.67519000    0.19140046    0.51320000
opls_465-286    C    0.81165991    0.17519000    0.30860981    0.51320000
opls_465-287    C    0.31165991    0.67519000    0.30860981    0.51320000
opls_468-288    C    0.13920006    0.18053000    0.39959009    0.07820000
opls_468-289    C    0.63920006    0.68053000    0.39959009    0.07820000
opls_468-290    C    0.86080001    0.18053000    0.10041059    0.07820000
opls_468-291    C    0.36080001    0.68053000    0.10041059    0.07820000
opls_135-292    C    0.11875992    0.20280000    0.48870020    -0.42130000
opls_135-293    C    0.61875992    0.70280000    0.48870020    -0.42130000
opls_135-294    C    0.88123994    0.20280000    0.01130049    -0.42130000
opls_135-295    C    0.38123994    0.70280000    0.01130049    -0.42130000
opls_142-296    C    0.87970000    0.35922000    0.80342985    0.07020000
opls_142-297    C    0.37970000    0.85922000    0.80342985    0.07020000
opls_142-298    C    0.12030001    0.35922000    0.69658042    0.07020000
opls_142-299    C    0.62030001    0.85922000    0.69658042    0.07020000
opls_142-300    C    0.12030001    0.64078000    0.69658042    0.07020000
opls_142-301    C    0.62030001    0.14078000    0.69658042    0.07020000
opls_142-302    C    0.87970000    0.64078000    0.80342985    0.07020000
opls_142-303    C    0.37970000    0.14078000    0.80342985    0.07020000
opls_567-304    C    0.86028993    0.33678000    0.80891991    -0.02930000
opls_567-305    C    0.36028993    0.83678000    0.80891991    -0.02930000
opls_567-306    C    0.13970993    0.33678000    0.69108078    -0.02930000
opls_567-307    C    0.63970993    0.83678000    0.69108078    -0.02930000
opls_567-308    C    0.13970993    0.66322000    0.69108078    -0.02930000
opls_567-309    C    0.63970993    0.16322000    0.69108078    -0.02930000
opls_567-310    C    0.86028993    0.66322000    0.80891991    -0.02930000
opls_567-311    C    0.36028993    0.16322000    0.80891991    -0.02930000
opls_716-312    C    0.84861003    0.29415000    0.78299067    -0.17100000
opls_716-313    C    0.34861003    0.79415000    0.78299067    -0.17100000
opls_716-314    C    0.15139004    0.29415000    0.71701001    -0.17100000
opls_716-315    C    0.65138992    0.79415000    0.71702096    -0.17100000
opls_716-316    C    0.15139004    0.70585000    0.71701001    -0.17100000
opls_716-317    C    0.65138992    0.20585000    0.71702096    -0.17100000
opls_716-318    C    0.84861003    0.70585000    0.78299067    -0.17100000
opls_716-319    C    0.34861003    0.20585000    0.78299067    -0.17100000
opls_716-320    C    0.87061008    0.31139000    0.78352051    -0.17140000
opls_716-321    C    0.37061008    0.81139000    0.78352051    -0.17140000
opls_716-322    C    0.12940001    0.31139000    0.71648976    -0.17140000
opls_716-323    C    0.62940001    0.81139000    0.71648976    -0.17140000
opls_716-324    C    0.12940001    0.68861000    0.71648976    -0.17140000
opls_716-325    C    0.62940001    0.18861000    0.71648976    -0.17140000
opls_716-326    C    0.87061008    0.68861000    0.78352051    -0.17140000
opls_716-327    C    0.37061008    0.18861000    0.78352051    -0.17140000
opls_716-328    C    0.28374007    0.70908000    0.52073011    -0.12970000
opls_716-329    C    0.78374007    0.20908000    0.52073011    -0.12970000
opls_716-330    C    0.71626000    0.70908000    0.97927058    -0.12970000
opls_716-331    C    0.21626000    0.20908000    0.97927058    -0.12970000
opls_567-332    C    0.28434999    0.68599000    0.43783021    -0.12590000
opls_567-333    C    0.78434999    0.18599000    0.43783021    -0.12590000
opls_567-334    C    0.71564987    0.68599000    0.06217048    -0.12590000
opls_567-335    C    0.21564987    0.18599000    0.06217048    -0.12590000
opls_145-336    C    0.57475988    0.00000000    0.73655107    -0.13740000
opls_700-337    C    0.51514991    0.00000000    0.74808977    -0.00580000
opls_145-338    C    0.07475988    0.50000000    0.73655107    -0.13740000
opls_700-339    C    0.01514997    0.50000000    0.74808019    -0.00580000
opls_145-340    C    0.42524007    0.00000000    0.76346057    -0.13740000
opls_700-341    C    0.48484989    0.00000000    0.75192049    -0.00580000
opls_145-342    C    0.92524007    0.50000000    0.76346057    -0.13740000
opls_700-343    C    0.98484989    0.50000000    0.75192049    -0.00580000
opls_146-344    H    0.02461994    0.56646000    0.23957060    0.11240000
opls_146-345    H    0.52461994    0.06646000    0.23957060    0.10160000
opls_146-346    H    0.97537992    0.56646000    0.26043009    0.11240000
opls_146-347    H    0.47537992    0.06646000    0.26043009    0.10160000
opls_146-348    H    0.97537992    0.43354000    0.26043009    0.11240000
opls_146-349    H    0.47537992    0.93354000    0.26043009    0.11240000
opls_146-350    H    0.02461994    0.43354000    0.23957060    0.11240000
opls_146-351    H    0.52461994    0.93354000    0.23957060    0.11240000
opls_146-352    H    0.11591990    0.53333000    0.00006024    0.12320000
opls_146-353    H    0.61591990    0.03333000    0.00006024    0.12320000
opls_146-354    H    0.88407997    0.53333000    0.49994044    0.12320000
opls_146-355    H    0.38407997    0.03333000    0.49994044    0.12320000
opls_146-356    H    0.88407997    0.46667000    0.49994044    0.12320000
opls_146-357    H    0.38407997    0.96667000    0.49994044    0.12320000
opls_146-358    H    0.11591990    0.46667000    0.00006024    0.12320000
opls_146-359    H    0.61591990    0.96667000    0.00006024    0.12320000
opls_146-360    H    0.14619003    0.57343000    0.97589987    0.11870000
opls_146-361    H    0.64619003    0.07343000    0.97589987    0.11870000
opls_146-362    H    0.85380998    0.57343000    0.52411040    0.12120000
opls_146-363    H    0.35380998    0.07343000    0.52411040    0.12120000
opls_146-364    H    0.85380998    0.42657000    0.52411040    0.12120000
opls_146-365    H    0.35380998    0.92657000    0.52411040    0.12120000
opls_146-366    H    0.14619003    0.42657000    0.97589987    0.11870000
opls_146-367    H    0.64619003    0.92657000    0.97589987    0.11870000
opls_146-368    H    0.92282995    0.39136000    0.08829002    0.12610000
opls_146-369    H    0.42282995    0.89136000    0.08829002    0.12600000
opls_146-370    H    0.07717006    0.39136000    0.41172025    0.12600000
opls_146-371    H    0.57717006    0.89136000    0.41172025    0.12600000
opls_146-372    H    0.07717006    0.60864000    0.41172025    0.12600000
opls_146-373    H    0.57717006    0.10864000    0.41172025    0.12600000
opls_146-374    H    0.92282995    0.60864000    0.08829002    0.12600000
opls_146-375    H    0.42282995    0.10864000    0.08829002    0.12600000
opls_146-376    H    0.95182998    0.43122000    0.05560020    0.10020000
opls_146-377    H    0.45182998    0.93122000    0.05560020    0.10020000
opls_146-378    H    0.04817004    0.43122000    0.44441007    0.11240000
opls_146-379    H    0.54817004    0.93122000    0.44441007    0.11240000
opls_146-380    H    0.04817004    0.56878000    0.44441007    0.11240000
opls_146-381    H    0.54817004    0.06878000    0.44441007    0.11240000
opls_146-382    H    0.95182998    0.56878000    0.05560020    0.10020000
opls_146-383    H    0.45182998    0.06878000    0.05560020    0.10020000
opls_469-384    H    0.14641994    0.16992000    0.00568036    0.05970000
opls_469-385    H    0.64642000    0.66992000    0.00567078    0.06110000
opls_469-386    H    0.85358007    0.16992000    0.49432990    0.06110000
opls_469-387    H    0.35357992    0.66992000    0.49432032    0.05970000
opls_469-388    H    0.12757008    0.16616000    0.83676998    0.06100000
opls_469-389    H    0.62757008    0.66616000    0.83676998    0.06100000
opls_469-390    H    0.87242994    0.16616000    0.66324029    0.06100000
opls_469-391    H    0.37242999    0.66616000    0.66323070    0.06100000
opls_140-392    H    0.09950006    0.19520000    0.09920031    0.17890000
opls_140-393    H    0.59949993    0.69520000    0.09921127    0.17890000
opls_140-394    H    0.90050994    0.19520000    0.40079079    0.17960000
opls_140-395    H    0.40050007    0.69520000    0.40079079    0.17890000
opls_140-396    H    0.11108007    0.21319000    0.88514001    0.18010000
opls_140-397    H    0.61107995    0.71319000    0.88515096    0.18010000
opls_140-398    H    0.88892000    0.21319000    0.61486067    0.18010000
opls_140-399    H    0.38892000    0.71319000    0.61486067    0.18010000
opls_140-400    H    0.13132001    0.21690000    0.04669015    0.11820000
opls_140-401    H    0.63132001    0.71690000    0.04669015    0.11820000
opls_140-402    H    0.86868006    0.21690000    0.45331053    0.11820000
opls_140-403    H    0.36868006    0.71690000    0.45331053    0.11820000
opls_570-404    H    0.19660995    0.22081000    0.49952013    0.12270000
opls_570-405    H    0.69660995    0.72081000    0.49952013    0.12270000
opls_570-406    H    0.80338991    0.22081000    0.00048055    0.12270000
opls_570-407    H    0.30338991    0.72081000    0.00048055    0.12270000
opls_144-408    H    0.90320988    0.35575000    0.27094061    0.13020000
opls_144-409    H    0.40320988    0.85575000    0.27094061    0.13020000
opls_144-410    H    0.09678998    0.35575000    0.22906008    0.13020000
opls_144-411    H    0.59678998    0.85575000    0.22906008    0.13020000
opls_144-412    H    0.09678998    0.64425000    0.22906008    0.13020000
opls_144-413    H    0.59678998    0.14425000    0.22906008    0.13020000
opls_144-414    H    0.90320988    0.64425000    0.27094061    0.13020000
opls_144-415    H    0.40320988    0.14425000    0.27094061    0.13020000
opls_570-416    H    0.89326002    0.30572000    0.26449081    0.12650000
opls_570-417    H    0.39326002    0.80572000    0.26449081    0.12650000
opls_570-418    H    0.10673999    0.30572000    0.23551945    0.12310000
opls_570-419    H    0.60673999    0.80572000    0.23551945    0.12310000
opls_570-420    H    0.10673999    0.69428000    0.23551945    0.12310000
opls_570-421    H    0.60673999    0.19428000    0.23551945    0.12310000
opls_570-422    H    0.89326002    0.69428000    0.26449081    0.12650000
opls_570-423    H    0.39326002    0.19428000    0.26449081    0.12650000
opls_570-424    H    0.35177002    0.77318000    0.26490976    0.12200000
opls_570-425    H    0.85177002    0.27318000    0.26490976    0.12200000
opls_570-426    H    0.64823012    0.77318000    0.23508956    0.12200000
opls_570-427    H    0.14823012    0.27318000    0.23508956    0.12200000
opls_570-428    H    0.64823012    0.22682000    0.23508956    0.12200000
opls_570-429    H    0.14823012    0.72682000    0.23508956    0.12200000
opls_570-430    H    0.35177002    0.22682000    0.26490976    0.12200000
opls_570-431    H    0.85177002    0.72682000    0.26490976    0.12200000
opls_146-432    H    0.59750008    0.00000000    0.23715004    0.12100000
opls_146-433    H    0.09750008    0.50000000    0.23715004    0.12100000
opls_146-434    H    0.40249994    0.00000000    0.26286023    0.12100000
opls_146-435    H    0.90249999    0.50000000    0.26285064    0.12100000
opls_570-436    H    0.76211007    0.32095000    0.45567085    0.04350000
opls_570-437    H    0.72166987    0.28745000    0.44097091    0.04350000
opls_570-438    H    0.23788007    0.32095000    0.04433942    0.04350000
opls_570-439    H    0.27832993    0.28745000    0.05903936    0.04350000
opls_570-440    H    0.73788007    0.82095000    0.04433942    0.04350000
opls_570-441    H    0.77832993    0.78745000    0.05903936    0.04350000
opls_570-442    H    0.26211007    0.82095000    0.45567085    0.04350000
opls_570-443    H    0.22166987    0.78745000    0.44097091    0.04350000
opls_146-444    H    0.02462008    0.56646000    0.73956991    0.11240000
opls_146-445    H    0.52462008    0.06646000    0.73956991    0.10160000
opls_146-446    H    0.97537999    0.56646000    0.76043077    0.11240000
opls_146-447    H    0.47537999    0.06646000    0.76043077    0.10160000
opls_146-448    H    0.97537999    0.43354000    0.76043077    0.11240000
opls_146-449    H    0.47537999    0.93354000    0.76043077    0.11240000
opls_146-450    H    0.02462008    0.43354000    0.73956991    0.11240000
opls_146-451    H    0.52462008    0.93354000    0.73956991    0.11240000
opls_146-452    H    0.11591997    0.53333000    0.50006092    0.12320000
opls_146-453    H    0.61591997    0.03333000    0.50006092    0.12320000
opls_146-454    H    0.88408004    0.53333000    0.99994113    0.12320000
opls_146-455    H    0.38408004    0.03333000    0.99994113    0.12320000
opls_146-456    H    0.88408004    0.46667000    0.99994113    0.12320000
opls_146-457    H    0.38408004    0.96667000    0.99994113    0.12320000
opls_146-458    H    0.11591997    0.46667000    0.50006092    0.12320000
opls_146-459    H    0.61591997    0.96667000    0.50006092    0.12320000
opls_146-460    H    0.14618990    0.57343000    0.47590055    0.11870000
opls_146-461    H    0.64618990    0.07343000    0.47590055    0.11870000
opls_146-462    H    0.85381005    0.57343000    0.02411108    0.12120000
opls_146-463    H    0.35381005    0.07343000    0.02411108    0.12120000
opls_146-464    H    0.85381005    0.42657000    0.02411108    0.12120000
opls_146-465    H    0.35381005    0.92657000    0.02411108    0.12120000
opls_146-466    H    0.14618990    0.42657000    0.47590055    0.11870000
opls_146-467    H    0.64618990    0.92657000    0.47590055    0.11870000
opls_146-468    H    0.92283002    0.39136000    0.58829070    0.12600000
opls_146-469    H    0.42283002    0.89136000    0.58829070    0.12600000
opls_146-470    H    0.07716992    0.39136000    0.91172094    0.12420000
opls_146-471    H    0.57716992    0.89136000    0.91172094    0.12420000
opls_146-472    H    0.07716992    0.60864000    0.91172094    0.12420000
opls_146-473    H    0.57716992    0.10864000    0.91172094    0.12420000
opls_146-474    H    0.92283002    0.60864000    0.58829070    0.12600000
opls_146-475    H    0.42283002    0.10864000    0.58829070    0.12600000
opls_146-476    H    0.95183005    0.43122000    0.55560089    0.10020000
opls_146-477    H    0.45183005    0.93122000    0.55560089    0.10030000
opls_146-478    H    0.04816990    0.43122000    0.94441075    0.11240000
opls_146-479    H    0.54816990    0.93122000    0.94441075    0.11240000
opls_146-480    H    0.04816990    0.56878000    0.94441075    0.11240000
opls_146-481    H    0.54816990    0.06878000    0.94441075    0.11240000
opls_146-482    H    0.95183005    0.56878000    0.55560089    0.10020000
opls_146-483    H    0.45183005    0.06878000    0.55560089    0.10020000
opls_469-484    H    0.14642008    0.16992000    0.50567968    0.05970000
opls_469-485    H    0.64642008    0.66992000    0.50567968    0.05970000
opls_469-486    H    0.85357994    0.16992000    0.99433059    0.06110000
opls_469-487    H    0.35358006    0.66992000    0.99431964    0.05970000
opls_469-488    H    0.12756994    0.16616000    0.33677067    0.06100000
opls_469-489    H    0.62756994    0.66616000    0.33677067    0.06100000
opls_469-490    H    0.87243008    0.16616000    0.16323960    0.06100000
opls_469-491    H    0.37242992    0.66616000    0.16323002    0.06100000
opls_140-492    H    0.09949992    0.19520000    0.59920100    0.17890000
opls_140-493    H    0.59950007    0.69520000    0.59921058    0.17890000
opls_140-494    H    0.90051008    0.19520000    0.90079010    0.17960000
opls_140-495    H    0.40050000    0.69520000    0.90079010    0.17890000
opls_140-496    H    0.11107993    0.21319000    0.38514069    0.18010000
opls_140-497    H    0.61108009    0.71319000    0.38515028    0.18010000
opls_140-498    H    0.88891993    0.21319000    0.11485999    0.18010000
opls_140-499    H    0.38891993    0.71319000    0.11485999    0.18010000
opls_140-500    H    0.13131987    0.21690000    0.54669084    0.11820000
opls_140-501    H    0.63131987    0.71690000    0.54669084    0.11820000
opls_140-502    H    0.86867999    0.21690000    0.95330985    0.11820000
opls_140-503    H    0.36867999    0.71690000    0.95330985    0.11820000
opls_570-504    H    0.19661003    0.22081000    0.99952082    0.12270000
opls_570-505    H    0.69661003    0.72081000    0.99952082    0.12270000
opls_570-506    H    0.80339005    0.22081000    0.50047987    0.12270000
opls_570-507    H    0.30339005    0.72081000    0.50047987    0.12270000
opls_144-508    H    0.90321002    0.35575000    0.77093992    0.13020000
opls_144-509    H    0.40321002    0.85575000    0.77093992    0.13020000
opls_144-510    H    0.09679005    0.35575000    0.72906076    0.13020000
opls_144-511    H    0.59679005    0.85575000    0.72906076    0.13020000
opls_144-512    H    0.09679005    0.64425000    0.72906076    0.13020000
opls_144-513    H    0.59679005    0.14425000    0.72906076    0.13020000
opls_144-514    H    0.90321002    0.64425000    0.77093992    0.13020000
opls_144-515    H    0.40321002    0.14425000    0.77093992    0.13020000
opls_570-516    H    0.89325995    0.30572000    0.76449013    0.12650000
opls_570-517    H    0.39325995    0.80572000    0.76449013    0.12650000
opls_570-518    H    0.10674006    0.30572000    0.73552014    0.12310000
opls_570-519    H    0.60674006    0.80572000    0.73552014    0.12310000
opls_570-520    H    0.10674006    0.69428000    0.73552014    0.12310000
opls_570-521    H    0.60674006    0.19428000    0.73552014    0.12310000
opls_570-522    H    0.89325995    0.69428000    0.76449013    0.12650000
opls_570-523    H    0.39325995    0.19428000    0.76449013    0.12650000
opls_570-524    H    0.35177009    0.77318000    0.76491044    0.12200000
opls_570-525    H    0.85177009    0.27318000    0.76491044    0.12200000
opls_570-526    H    0.64822998    0.77318000    0.73509024    0.12200000
opls_570-527    H    0.14822998    0.27318000    0.73509024    0.12200000
opls_570-528    H    0.64822998    0.22682000    0.73509024    0.12200000
opls_570-529    H    0.14822998    0.72682000    0.73509024    0.12200000
opls_570-530    H    0.35177009    0.22682000    0.76491044    0.12200000
opls_570-531    H    0.85177009    0.72682000    0.76491044    0.12200000
opls_146-532    H    0.59749994    0.00000000    0.73715073    0.12100000
opls_146-533    H    0.09749994    0.50000000    0.73715073    0.12100000
opls_146-534    H    0.40250001    0.00000000    0.76286091    0.12100000
opls_146-535    H    0.90249992    0.50000000    0.76284996    0.12100000
opls_570-536    H    0.76211000    0.32095000    0.95567016    0.04350000
opls_570-537    H    0.72167001    0.28745000    0.94097022    0.04350000
opls_570-538    H    0.23787993    0.32095000    0.54434010    0.04350000
opls_570-539    H    0.27833000    0.28745000    0.55904005    0.04350000
opls_570-540    H    0.73787993    0.82095000    0.54434010    0.04350000
opls_570-541    H    0.77833000    0.78745000    0.55904005    0.04350000
opls_570-542    H    0.26211000    0.82095000    0.95567016    0.04350000
opls_570-543    H    0.22167001    0.78745000    0.94097022    0.04350000
opls_750-544    N    0.63102004    0.88278000    0.16599011    -0.33500000
opls_750-545    N    0.13102004    0.38278000    0.16599011    -0.33500000
opls_750-546    N    0.36897997    0.88278000    0.33402016    -0.33500000
opls_750-547    N    0.86897997    0.38278000    0.33402016    -0.33500000
opls_750-548    N    0.36897997    0.11722000    0.33402016    -0.33500000
opls_750-549    N    0.86897997    0.61722000    0.33402016    -0.33500000
opls_750-550    N    0.63102004    0.11722000    0.16599011    -0.33500000
opls_750-551    N    0.13102004    0.61722000    0.16599011    -0.33500000
opls_750-552    N    0.63101990    0.88278000    0.66599079    -0.33500000
opls_750-553    N    0.13101990    0.38278000    0.66599079    -0.33500000
opls_750-554    N    0.36898004    0.88278000    0.83402085    -0.33500000
opls_750-555    N    0.86898004    0.38278000    0.83402085    -0.33500000
opls_750-556    N    0.36898004    0.11722000    0.83402085    -0.33500000
opls_750-557    N    0.86898004    0.61722000    0.83402085    -0.33500000
opls_750-558    N    0.63101990    0.11722000    0.66599079    -0.33500000
opls_750-559    N    0.13101990    0.61722000    0.66599079    -0.33500000
opls_633-560    S    0.17643992    0.66005000    0.16744956    0.08120000
opls_633-561    S    0.67643992    0.16005000    0.16744956    0.08120000
opls_633-562    S    0.82355988    0.66005000    0.33256071    0.08120000
opls_633-563    S    0.32355988    0.16005000    0.33256071    0.08120000
opls_633-564    S    0.82355988    0.33995000    0.33256071    0.08120000
opls_633-565    S    0.32355988    0.83995000    0.33256071    0.08120000
opls_633-566    S    0.17643992    0.33995000    0.16744956    0.08120000
opls_633-567    S    0.67643992    0.83995000    0.16744956    0.08120000
opls_633-568    S    0.20358997    0.73774000    0.29430006    0.08120000
opls_633-569    S    0.70358997    0.23774000    0.29430006    0.08120000
opls_633-570    S    0.79640989    0.73774000    0.20570063    0.08120000
opls_633-571    S    0.29640989    0.23774000    0.20570063    0.08120000
opls_633-572    S    0.79640989    0.26226000    0.20570063    0.08120000
opls_633-573    S    0.29640989    0.76226000    0.20570063    0.08120000
opls_633-574    S    0.20358997    0.26226000    0.29430006    0.08120000
opls_633-575    S    0.70358997    0.76226000    0.29430006    0.08120000
opls_633-576    S    0.24835000    0.67045000    0.97966077    0.09160000
opls_633-577    S    0.74835000    0.17045000    0.97966077    0.09160000
opls_633-578    S    0.75165007    0.67045000    0.52033992    0.09160000
opls_633-579    S    0.25165007    0.17045000    0.52033992    0.09160000
opls_633-580    S    0.17643999    0.66005000    0.66745024    0.08120000
opls_633-581    S    0.67643999    0.16005000    0.66745024    0.08120000
opls_633-582    S    0.82356002    0.66005000    0.83256002    0.08120000
opls_633-583    S    0.32356002    0.16005000    0.83256002    0.08120000
opls_633-584    S    0.82356002    0.33995000    0.83256002    0.08120000
opls_633-585    S    0.32356002    0.83995000    0.83256002    0.08120000
opls_633-586    S    0.17643999    0.33995000    0.66745024    0.08120000
opls_633-587    S    0.67643999    0.83995000    0.66745024    0.08120000
opls_633-588    S    0.20359004    0.73774000    0.79430074    0.08120000
opls_633-589    S    0.70359004    0.23774000    0.79430074    0.08120000
opls_633-590    S    0.79641003    0.73774000    0.70569994    0.08120000
opls_633-591    S    0.29641003    0.23774000    0.70569994    0.08120000
opls_633-592    S    0.79641003    0.26226000    0.70569994    0.08120000
opls_633-593    S    0.29641003    0.76226000    0.70569994    0.08120000
opls_633-594    S    0.20359004    0.26226000    0.79430074    0.08120000
opls_633-595    S    0.70359004    0.76226000    0.79430074    0.08120000
opls_633-596    S    0.24834993    0.67045000    0.47966008    0.09160000
opls_633-597    S    0.74834993    0.17045000    0.47966008    0.09160000
opls_633-598    S    0.75164993    0.67045000    0.02034060    0.09160000
opls_633-599    S    0.25164993    0.17045000    0.02034060    0.09160000
opls_467-600    O    0.16379994    0.19180000    0.76357010    -0.21310000
opls_467-601    O    0.66379994    0.69180000    0.76357010    -0.21310000
opls_467-602    O    0.83619992    0.19180000    0.73643058    -0.21310000
opls_467-603    O    0.33619992    0.69180000    0.73643058    -0.21310000
opls_466-604    O    0.18745011    0.15236000    0.74015999    -0.43190000
opls_466-605    O    0.68745011    0.65236000    0.74015999    -0.43190000
opls_466-606    O    0.81254990    0.15236000    0.75985028    -0.43190000
opls_466-607    O    0.31254990    0.65236000    0.75985028    -0.43190000
opls_467-608    O    0.16380001    0.19180000    0.26357078    -0.21310000
opls_467-609    O    0.66380001    0.69180000    0.26357078    -0.21310000
opls_467-610    O    0.83620006    0.19180000    0.23642990    -0.21310000
opls_467-611    O    0.33620006    0.69180000    0.23642990    -0.21310000
opls_466-612    O    0.18744997    0.15236000    0.24016068    -0.43190000
opls_466-613    O    0.68744997    0.65236000    0.24016068    -0.43190000
opls_466-614    O    0.81255004    0.15236000    0.25984959    -0.43190000
opls_466-615    O    0.31255004    0.65236000    0.25984959    -0.43190000
