#======================================================================
# Crystal Data Generated By AuToFF
#----------------------------------------------------------------------

data_AuToFF_phase_1

_cell_length_a                         36.0116
_cell_length_b                         36.0116
_cell_length_c                         10.5192
_cell_angle_alpha                      90.00
_cell_angle_beta                       90.00
_cell_angle_gamma                      90.00
_symmetry_space_group_name_H-M_alt     'P 1'
_symmetry_space_group_IT_number        1

loop_
_space_group_symop_operation_xyz
   'x, y, z'

loop_
   _atom_site_label
   _atom_site_type_symbol
   _atom_site_fract_x
   _atom_site_fract_y
   _atom_site_fract_z
   _atom_site_charge
opls_716-0    C    0.47240000    0.11340013    0.94019983    -0.17250000
opls_507-1    C    0.46399993    0.07760000    0.97850027    0.19260000
opls_716-2    C    0.38790001    0.01329988    0.07700015    -0.16590000
opls_543-3    C    0.42089993    0.02670001    0.02725017    0.17900000
opls_700-4    C    0.42789990    0.06419987    0.99880029    -0.06740000
opls_700-5    C    0.39650002    0.09069994    0.99574968    0.06710000
opls_145-6    C    0.39290007    0.11770013    0.09110008    -0.12330000
opls_145-7    C    0.36380000    0.14339990    0.08665013    -0.16300000
opls_917-8    C    0.33799998    0.14220001    0.98680033    0.21250000
opls_145-9    C    0.34149996    0.11530007    0.89189957    -0.15650000
opls_145-10    C    0.37040009    0.08940008    0.89649973    -0.12590000
opls_701-11    C    0.28350004    0.17799987    0.08014963    -0.17670000
opls_700-12    C    0.26540004    0.21550001    0.05795022    0.00510000
opls_166-13    C    0.27259994    0.24579996    0.13904955    0.22400000
opls_145-14    C    0.25590004    0.28010002    0.11515039    -0.24320000
opls_700-15    C    0.23350004    0.28559992    0.00689976    0.01220000
opls_166-16    C    0.22480006    0.25500006    0.92790041    0.23950000
opls_145-17    C    0.24169990    0.22050006    0.95290041    -0.27690000
opls_700-18    C    0.10340002    0.41149991    0.02904974    0.07640000
opls_145-19    C    0.10799992    0.38260005    0.94100027    -0.12580000
opls_145-20    C    0.13700002    0.35709993    0.95604989    -0.16280000
opls_145-21    C    0.12779993    0.41450005    0.13255000    -0.11600000
opls_917-22    C    0.16139994    0.36020005    0.05974979    0.19570000
opls_145-23    C    0.15639988    0.38880000    0.14824987    -0.15600000
opls_701-24    C    0.21710005    0.32359990    0.97995000    -0.17670000
opls_716-25    C    0.11610009    0.48760011    0.94585044    -0.18270000
opls_507-26    C    0.08160010    0.47560008    0.98674994    0.19180000
opls_716-27    C    0.02689994    0.39130003    0.08339988    -0.13190000
opls_543-28    C    0.03620000    0.42609992    0.03669956    0.18090000
opls_700-29    C    0.07269991    0.43840013    0.01469979    -0.06870000
opls_181-30    C    0.33330010    0.25189994    0.22074968    -0.19120000
opls_181-31    C    0.18190000    0.22799987    0.77345045    -0.18460000
opls_136-32    C    0.31550001    0.32640010    0.96504962    0.10340000
opls_136-33    C    0.28680009    0.41299998    0.09314967    0.10740000
opls_135-34    C    0.29599990    0.44010013    0.98549985    -0.42930000
opls_135-35    C    0.35690000    0.32900010    0.93879953    -0.42930000
opls_136-36    C    0.17980012    0.12279988    0.05050004    0.09400000
opls_135-37    C    0.14079991    0.13520005    0.01404955    -0.42930000
opls_136-38    C    0.26880005    0.07070000    0.08474979    0.11160000
opls_135-39    C    0.28059986    0.03729993    0.00485018    -0.42930000
opls_716-40    C    0.52760000    0.88659987    0.94019983    -0.17250000
opls_507-41    C    0.53600007    0.92240000    0.97850027    0.19260000
opls_716-42    C    0.61209999    0.98670012    0.07700015    -0.16590000
opls_543-43    C    0.57910007    0.97329999    0.02725017    0.17900000
opls_700-44    C    0.57210010    0.93580013    0.99880029    -0.06740000
opls_700-45    C    0.60349998    0.90930006    0.99574968    0.06710000
opls_145-46    C    0.60709993    0.88229987    0.09110008    -0.12330000
opls_145-47    C    0.63620000    0.85660010    0.08665013    -0.16300000
opls_917-48    C    0.66200002    0.85779999    0.98680033    0.21250000
opls_145-49    C    0.65850004    0.88469993    0.89189957    -0.15650000
opls_145-50    C    0.62959991    0.91059992    0.89649973    -0.12590000
opls_701-51    C    0.71649996    0.82200013    0.08014963    -0.17670000
opls_700-52    C    0.73459996    0.78449999    0.05795022    0.00510000
opls_166-53    C    0.72740006    0.75420004    0.13904955    0.22400000
opls_145-54    C    0.74409996    0.71989998    0.11515039    -0.24310000
opls_700-55    C    0.76649996    0.71440008    0.00689976    0.01220000
opls_166-56    C    0.77519994    0.74499994    0.92790041    0.23950000
opls_145-57    C    0.75830010    0.77949994    0.95290041    -0.27690000
opls_700-58    C    0.89659998    0.58850009    0.02904974    0.07640000
opls_145-59    C    0.89200008    0.61739995    0.94100027    -0.12590000
opls_145-60    C    0.86299998    0.64290007    0.95604989    -0.16290000
opls_145-61    C    0.87220007    0.58549995    0.13255000    -0.11600000
opls_917-62    C    0.83860006    0.63979995    0.05974979    0.19570000
opls_145-63    C    0.84360012    0.61120000    0.14824987    -0.15600000
opls_701-64    C    0.78289995    0.67640010    0.97995000    -0.17670000
opls_716-65    C    0.88389991    0.51239989    0.94585044    -0.18260000
opls_507-66    C    0.91839990    0.52439992    0.98674994    0.19180000
opls_716-67    C    0.97310006    0.60869997    0.08339988    -0.13190000
opls_543-68    C    0.96380000    0.57390008    0.03669956    0.18090000
opls_700-69    C    0.92730009    0.56159987    0.01469979    -0.06870000
opls_181-70    C    0.66669990    0.74810006    0.22074968    -0.19120000
opls_181-71    C    0.81810000    0.77200013    0.77345045    -0.18460000
opls_136-72    C    0.68449999    0.67359990    0.96504962    0.10340000
opls_136-73    C    0.71319991    0.58700002    0.09314967    0.10740000
opls_135-74    C    0.70400010    0.55989987    0.98549985    -0.42930000
opls_135-75    C    0.64310000    0.67099990    0.93879953    -0.42930000
opls_136-76    C    0.82019988    0.87720012    0.05050004    0.09400000
opls_135-77    C    0.85920009    0.86479995    0.01404955    -0.42920000
opls_136-78    C    0.73119995    0.92930000    0.08474979    0.11160000
opls_135-79    C    0.71940014    0.96270007    0.00485018    -0.42930000
opls_716-80    C    0.88659987    0.47240000    0.94019983    -0.17250000
opls_507-81    C    0.92240000    0.46399993    0.97850027    0.19260000
opls_716-82    C    0.98670012    0.38790001    0.07700015    -0.16590000
opls_543-83    C    0.97329999    0.42089993    0.02725017    0.17900000
opls_700-84    C    0.93580013    0.42789990    0.99880029    -0.06740000
opls_700-85    C    0.90930006    0.39650002    0.99574968    0.06710000
opls_145-86    C    0.88229987    0.39290007    0.09110008    -0.12330000
opls_145-87    C    0.85660010    0.36380000    0.08665013    -0.16300000
opls_917-88    C    0.85779999    0.33799998    0.98680033    0.21250000
opls_145-89    C    0.88469993    0.34149996    0.89189957    -0.15650000
opls_145-90    C    0.91059992    0.37040009    0.89649973    -0.12590000
opls_701-91    C    0.82200013    0.28350004    0.08014963    -0.17660000
opls_700-92    C    0.78449999    0.26540004    0.05795022    0.00510000
opls_166-93    C    0.75420004    0.27259994    0.13904955    0.22400000
opls_145-94    C    0.71989998    0.25590004    0.11515039    -0.24320000
opls_700-95    C    0.71440008    0.23350004    0.00689976    0.01220000
opls_166-96    C    0.74499994    0.22480006    0.92790041    0.23950000
opls_145-97    C    0.77949994    0.24169990    0.95290041    -0.27690000
opls_700-98    C    0.58850009    0.10340002    0.02904974    0.07640000
opls_145-99    C    0.61739995    0.10799992    0.94100027    -0.12580000
opls_145-100    C    0.64290007    0.13700002    0.95604989    -0.16290000
opls_145-101    C    0.58549995    0.12779993    0.13255000    -0.11600000
opls_917-102    C    0.63979995    0.16139994    0.05974979    0.19570000
opls_145-103    C    0.61120000    0.15639988    0.14824987    -0.15600000
opls_701-104    C    0.67640010    0.21710005    0.97995000    -0.17670000
opls_716-105    C    0.51239989    0.11610009    0.94585044    -0.18270000
opls_507-106    C    0.52439992    0.08160010    0.98674994    0.19190000
opls_716-107    C    0.60869997    0.02689994    0.08339988    -0.13190000
opls_543-108    C    0.57390008    0.03620000    0.03669956    0.18090000
opls_700-109    C    0.56159987    0.07269991    0.01469979    -0.06870000
opls_181-110    C    0.74810006    0.33330010    0.22074968    -0.19120000
opls_181-111    C    0.77200013    0.18190000    0.77345045    -0.18460000
opls_136-112    C    0.67359990    0.31550001    0.96504962    0.10340000
opls_136-113    C    0.58700002    0.28680009    0.09314967    0.10740000
opls_135-114    C    0.55989987    0.29599990    0.98549985    -0.42930000
opls_135-115    C    0.67099990    0.35690000    0.93879953    -0.42920000
opls_136-116    C    0.87720012    0.17980012    0.05050004    0.09400000
opls_135-117    C    0.86479995    0.14079991    0.01404955    -0.42930000
opls_136-118    C    0.92930000    0.26880005    0.08474979    0.11160000
opls_135-119    C    0.96270007    0.28059986    0.00485018    -0.42930000
opls_716-120    C    0.11340013    0.52760000    0.94019983    -0.17250000
opls_507-121    C    0.07760000    0.53600007    0.97850027    0.19270000
opls_716-122    C    0.01329988    0.61209999    0.07700015    -0.16590000
opls_543-123    C    0.02670001    0.57910007    0.02725017    0.17900000
opls_700-124    C    0.06419987    0.57210010    0.99880029    -0.06740000
opls_700-125    C    0.09069994    0.60349998    0.99574968    0.06710000
opls_145-126    C    0.11770013    0.60709993    0.09110008    -0.12330000
opls_145-127    C    0.14339990    0.63620000    0.08665013    -0.16290000
opls_917-128    C    0.14220001    0.66200002    0.98680033    0.21250000
opls_145-129    C    0.11530007    0.65850004    0.89189957    -0.15650000
opls_145-130    C    0.08940008    0.62959991    0.89649973    -0.12590000
opls_701-131    C    0.17799987    0.71649996    0.08014963    -0.17670000
opls_700-132    C    0.21550001    0.73459996    0.05795022    0.00510000
opls_166-133    C    0.24579996    0.72740006    0.13904955    0.22400000
opls_145-134    C    0.28010002    0.74409996    0.11515039    -0.24320000
opls_700-135    C    0.28559992    0.76649996    0.00689976    0.01220000
opls_166-136    C    0.25500006    0.77519994    0.92790041    0.23950000
opls_145-137    C    0.22050006    0.75830010    0.95290041    -0.27690000
opls_700-138    C    0.41149991    0.89659998    0.02904974    0.07640000
opls_145-139    C    0.38260005    0.89200008    0.94100027    -0.12590000
opls_145-140    C    0.35709993    0.86299998    0.95604989    -0.16290000
opls_145-141    C    0.41450005    0.87220007    0.13255000    -0.11600000
opls_917-142    C    0.36020005    0.83860006    0.05974979    0.19580000
opls_145-143    C    0.38880000    0.84360012    0.14824987    -0.15600000
opls_701-144    C    0.32359990    0.78289995    0.97995000    -0.17660000
opls_716-145    C    0.48760011    0.88389991    0.94585044    -0.18270000
opls_507-146    C    0.47560008    0.91839990    0.98674994    0.19180000
opls_716-147    C    0.39130003    0.97310006    0.08339988    -0.13190000
opls_543-148    C    0.42609992    0.96380000    0.03669956    0.18090000
opls_700-149    C    0.43840013    0.92730009    0.01469979    -0.06870000
opls_181-150    C    0.25189994    0.66669990    0.22074968    -0.19120000
opls_181-151    C    0.22799987    0.81810000    0.77345045    -0.18460000
opls_136-152    C    0.32640010    0.68449999    0.96504962    0.10340000
opls_136-153    C    0.41299998    0.71319991    0.09314967    0.10740000
opls_135-154    C    0.44010013    0.70400010    0.98549985    -0.42930000
opls_135-155    C    0.32900010    0.64310000    0.93879953    -0.42930000
opls_136-156    C    0.12279988    0.82019988    0.05050004    0.09400000
opls_135-157    C    0.13520005    0.85920009    0.01404955    -0.42930000
opls_136-158    C    0.07070000    0.73119995    0.08474979    0.11160000
opls_135-159    C    0.03729993    0.71940014    0.00485018    -0.42930000
opls_716-160    C    0.47240000    0.11340013    0.44019983    -0.17250000
opls_507-161    C    0.46399993    0.07760000    0.47850027    0.19260000
opls_716-162    C    0.38790001    0.01329988    0.57700015    -0.16590000
opls_543-163    C    0.42089993    0.02670001    0.52725017    0.17900000
opls_700-164    C    0.42789990    0.06419987    0.49880029    -0.06740000
opls_700-165    C    0.39650002    0.09069994    0.49574968    0.06710000
opls_145-166    C    0.39290007    0.11770013    0.59110008    -0.12330000
opls_145-167    C    0.36380000    0.14339990    0.58665013    -0.16300000
opls_917-168    C    0.33799998    0.14220001    0.48680033    0.21250000
opls_145-169    C    0.34149996    0.11530007    0.39189957    -0.15650000
opls_145-170    C    0.37040009    0.08940008    0.39649973    -0.12590000
opls_701-171    C    0.28350004    0.17799987    0.58014963    -0.17670000
opls_700-172    C    0.26540004    0.21550001    0.55795022    0.00510000
opls_166-173    C    0.27259994    0.24579996    0.63904955    0.22400000
opls_145-174    C    0.25590004    0.28010002    0.61515039    -0.24320000
opls_700-175    C    0.23350004    0.28559992    0.50689976    0.01220000
opls_166-176    C    0.22480006    0.25500006    0.42790041    0.23950000
opls_145-177    C    0.24169990    0.22050006    0.45290041    -0.27690000
opls_700-178    C    0.10340002    0.41149991    0.52904974    0.07640000
opls_145-179    C    0.10799992    0.38260005    0.44100027    -0.12590000
opls_145-180    C    0.13700002    0.35709993    0.45604989    -0.16290000
opls_145-181    C    0.12779993    0.41450005    0.63255000    -0.11600000
opls_917-182    C    0.16139994    0.36020005    0.55974979    0.19570000
opls_145-183    C    0.15639988    0.38880000    0.64824987    -0.15600000
opls_701-184    C    0.21710005    0.32359990    0.47995000    -0.17670000
opls_716-185    C    0.11610009    0.48760011    0.44585044    -0.18270000
opls_507-186    C    0.08160010    0.47560008    0.48674994    0.19190000
opls_716-187    C    0.02689994    0.39130003    0.58339988    -0.13180000
opls_543-188    C    0.03620000    0.42609992    0.53669956    0.18090000
opls_700-189    C    0.07269991    0.43840013    0.51469979    -0.06870000
opls_181-190    C    0.33330010    0.25189994    0.72074968    -0.19120000
opls_181-191    C    0.18190000    0.22799987    0.27345045    -0.18460000
opls_136-192    C    0.31550001    0.32640010    0.46504962    0.10340000
opls_136-193    C    0.28680009    0.41299998    0.59314967    0.10740000
opls_135-194    C    0.29599990    0.44010013    0.48549985    -0.42930000
opls_135-195    C    0.35690000    0.32900010    0.43879953    -0.42930000
opls_136-196    C    0.17980012    0.12279988    0.55050004    0.09400000
opls_135-197    C    0.14079991    0.13520005    0.51404955    -0.42930000
opls_136-198    C    0.26880005    0.07070000    0.58474979    0.11160000
opls_135-199    C    0.28059986    0.03729993    0.50485018    -0.42930000
opls_716-200    C    0.52760000    0.88659987    0.44019983    -0.17250000
opls_507-201    C    0.53600007    0.92240000    0.47850027    0.19260000
opls_716-202    C    0.61209999    0.98670012    0.57700015    -0.16590000
opls_543-203    C    0.57910007    0.97329999    0.52725017    0.17900000
opls_700-204    C    0.57210010    0.93580013    0.49880029    -0.06740000
opls_700-205    C    0.60349998    0.90930006    0.49574968    0.06710000
opls_145-206    C    0.60709993    0.88229987    0.59110008    -0.12330000
opls_145-207    C    0.63620000    0.85660010    0.58665013    -0.16300000
opls_917-208    C    0.66200002    0.85779999    0.48680033    0.21250000
opls_145-209    C    0.65850004    0.88469993    0.39189957    -0.15650000
opls_145-210    C    0.62959991    0.91059992    0.39649973    -0.12590000
opls_701-211    C    0.71649996    0.82200013    0.58014963    -0.17670000
opls_700-212    C    0.73459996    0.78449999    0.55795022    0.00510000
opls_166-213    C    0.72740006    0.75420004    0.63904955    0.22400000
opls_145-214    C    0.74409996    0.71989998    0.61515039    -0.24320000
opls_700-215    C    0.76649996    0.71440008    0.50689976    0.01220000
opls_166-216    C    0.77519994    0.74499994    0.42790041    0.23960000
opls_145-217    C    0.75830010    0.77949994    0.45290041    -0.27690000
opls_700-218    C    0.89659998    0.58850009    0.52904974    0.07640000
opls_145-219    C    0.89200008    0.61739995    0.44100027    -0.12590000
opls_145-220    C    0.86299998    0.64290007    0.45604989    -0.16290000
opls_145-221    C    0.87220007    0.58549995    0.63255000    -0.11600000
opls_917-222    C    0.83860006    0.63979995    0.55974979    0.19570000
opls_145-223    C    0.84360012    0.61120000    0.64824987    -0.15600000
opls_701-224    C    0.78289995    0.67640010    0.47995000    -0.17670000
opls_716-225    C    0.88389991    0.51239989    0.44585044    -0.18260000
opls_507-226    C    0.91839990    0.52439992    0.48674994    0.19180000
opls_716-227    C    0.97310006    0.60869997    0.58339988    -0.13190000
opls_543-228    C    0.96380000    0.57390008    0.53669956    0.18090000
opls_700-229    C    0.92730009    0.56159987    0.51469979    -0.06870000
opls_181-230    C    0.66669990    0.74810006    0.72074968    -0.19120000
opls_181-231    C    0.81810000    0.77200013    0.27345045    -0.18460000
opls_136-232    C    0.68449999    0.67359990    0.46504962    0.10340000
opls_136-233    C    0.71319991    0.58700002    0.59314967    0.10740000
opls_135-234    C    0.70400010    0.55989987    0.48549985    -0.42930000
opls_135-235    C    0.64310000    0.67099990    0.43879953    -0.42920000
opls_136-236    C    0.82019988    0.87720012    0.55050004    0.09400000
opls_135-237    C    0.85920009    0.86479995    0.51404955    -0.42930000
opls_136-238    C    0.73119995    0.92930000    0.58474979    0.11160000
opls_135-239    C    0.71940014    0.96270007    0.50485018    -0.42930000
opls_716-240    C    0.88659987    0.47240000    0.44019983    -0.17250000
opls_507-241    C    0.92240000    0.46399993    0.47850027    0.19260000
opls_716-242    C    0.98670012    0.38790001    0.57700015    -0.16590000
opls_543-243    C    0.97329999    0.42089993    0.52725017    0.17900000
opls_700-244    C    0.93580013    0.42789990    0.49880029    -0.06740000
opls_700-245    C    0.90930006    0.39650002    0.49574968    0.06710000
opls_145-246    C    0.88229987    0.39290007    0.59110008    -0.12330000
opls_145-247    C    0.85660010    0.36380000    0.58665013    -0.16300000
opls_917-248    C    0.85779999    0.33799998    0.48680033    0.21250000
opls_145-249    C    0.88469993    0.34149996    0.39189957    -0.15650000
opls_145-250    C    0.91059992    0.37040009    0.39649973    -0.12590000
opls_701-251    C    0.82200013    0.28350004    0.58014963    -0.17670000
opls_700-252    C    0.78449999    0.26540004    0.55795022    0.00510000
opls_166-253    C    0.75420004    0.27259994    0.63904955    0.22400000
opls_145-254    C    0.71989998    0.25590004    0.61515039    -0.24320000
opls_700-255    C    0.71440008    0.23350004    0.50689976    0.01220000
opls_166-256    C    0.74499994    0.22480006    0.42790041    0.23950000
opls_145-257    C    0.77949994    0.24169990    0.45290041    -0.27690000
opls_700-258    C    0.58850009    0.10340002    0.52904974    0.07640000
opls_145-259    C    0.61739995    0.10799992    0.44100027    -0.12590000
opls_145-260    C    0.64290007    0.13700002    0.45604989    -0.16290000
opls_145-261    C    0.58549995    0.12779993    0.63255000    -0.11600000
opls_917-262    C    0.63979995    0.16139994    0.55974979    0.19570000
opls_145-263    C    0.61120000    0.15639988    0.64824987    -0.15600000
opls_701-264    C    0.67640010    0.21710005    0.47995000    -0.17670000
opls_716-265    C    0.51239989    0.11610009    0.44585044    -0.18270000
opls_507-266    C    0.52439992    0.08160010    0.48674994    0.19180000
opls_716-267    C    0.60869997    0.02689994    0.58339988    -0.13190000
opls_543-268    C    0.57390008    0.03620000    0.53669956    0.18090000
opls_700-269    C    0.56159987    0.07269991    0.51469979    -0.06870000
opls_181-270    C    0.74810006    0.33330010    0.72074968    -0.19120000
opls_181-271    C    0.77200013    0.18190000    0.27345045    -0.18460000
opls_136-272    C    0.67359990    0.31550001    0.46504962    0.10340000
opls_136-273    C    0.58700002    0.28680009    0.59314967    0.10740000
opls_135-274    C    0.55989987    0.29599990    0.48549985    -0.42930000
opls_135-275    C    0.67099990    0.35690000    0.43879953    -0.42930000
opls_136-276    C    0.87720012    0.17980012    0.55050004    0.09400000
opls_135-277    C    0.86479995    0.14079991    0.51404955    -0.42920000
opls_136-278    C    0.92930000    0.26880005    0.58474979    0.11160000
opls_135-279    C    0.96270007    0.28059986    0.50485018    -0.42930000
opls_716-280    C    0.11340013    0.52760000    0.44019983    -0.17250000
opls_507-281    C    0.07760000    0.53600007    0.47850027    0.19260000
opls_716-282    C    0.01329988    0.61209999    0.57700015    -0.16590000
opls_543-283    C    0.02670001    0.57910007    0.52725017    0.17900000
opls_700-284    C    0.06419987    0.57210010    0.49880029    -0.06740000
opls_700-285    C    0.09069994    0.60349998    0.49574968    0.06710000
opls_145-286    C    0.11770013    0.60709993    0.59110008    -0.12330000
opls_145-287    C    0.14339990    0.63620000    0.58665013    -0.16300000
opls_917-288    C    0.14220001    0.66200002    0.48680033    0.21250000
opls_145-289    C    0.11530007    0.65850004    0.39189957    -0.15650000
opls_145-290    C    0.08940008    0.62959991    0.39649973    -0.12590000
opls_701-291    C    0.17799987    0.71649996    0.58014963    -0.17670000
opls_700-292    C    0.21550001    0.73459996    0.55795022    0.00510000
opls_166-293    C    0.24579996    0.72740006    0.63904955    0.22400000
opls_145-294    C    0.28010002    0.74409996    0.61515039    -0.24320000
opls_700-295    C    0.28559992    0.76649996    0.50689976    0.01220000
opls_166-296    C    0.25500006    0.77519994    0.42790041    0.23950000
opls_145-297    C    0.22050006    0.75830010    0.45290041    -0.27690000
opls_700-298    C    0.41149991    0.89659998    0.52904974    0.07640000
opls_145-299    C    0.38260005    0.89200008    0.44100027    -0.12590000
opls_145-300    C    0.35709993    0.86299998    0.45604989    -0.16290000
opls_145-301    C    0.41450005    0.87220007    0.63255000    -0.11600000
opls_917-302    C    0.36020005    0.83860006    0.55974979    0.19570000
opls_145-303    C    0.38880000    0.84360012    0.64824987    -0.15600000
opls_701-304    C    0.32359990    0.78289995    0.47995000    -0.17670000
opls_716-305    C    0.48760011    0.88389991    0.44585044    -0.18270000
opls_507-306    C    0.47560008    0.91839990    0.48674994    0.19180000
opls_716-307    C    0.39130003    0.97310006    0.58339988    -0.13190000
opls_543-308    C    0.42609992    0.96380000    0.53669956    0.18090000
opls_700-309    C    0.43840013    0.92730009    0.51469979    -0.06870000
opls_181-310    C    0.25189994    0.66669990    0.72074968    -0.19120000
opls_181-311    C    0.22799987    0.81810000    0.27345045    -0.18460000
opls_136-312    C    0.32640010    0.68449999    0.46504962    0.10340000
opls_136-313    C    0.41299998    0.71319991    0.59314967    0.10740000
opls_135-314    C    0.44010013    0.70400010    0.48549985    -0.42930000
opls_135-315    C    0.32900010    0.64310000    0.43879953    -0.42930000
opls_136-316    C    0.12279988    0.82019988    0.55050004    0.09400000
opls_135-317    C    0.13520005    0.85920009    0.51404955    -0.42920000
opls_136-318    C    0.07070000    0.73119995    0.58474979    0.11160000
opls_135-319    C    0.03729993    0.71940014    0.50485018    -0.42920000
opls_542-320    N    0.49530013    0.05850004    0.00604989    -0.28840000
opls_900-321    N    0.30930006    0.16950011    0.97669975    -0.37440000
opls_542-322    N    0.00330005    0.44579996    0.00229960    -0.36090000
opls_900-323    N    0.19050001    0.33369997    0.07939957    -0.37380000
opls_542-324    N    0.50469987    0.94149996    0.00604989    -0.28840000
opls_900-325    N    0.69069994    0.83049989    0.97669975    -0.37440000
opls_542-326    N    0.99669995    0.55420004    0.00229960    -0.36090000
opls_900-327    N    0.80949999    0.66630003    0.07939957    -0.37380000
opls_542-328    N    0.94149996    0.49530013    0.00604989    -0.28830000
opls_900-329    N    0.83049989    0.30930006    0.97669975    -0.37440000
opls_542-330    N    0.55420004    0.00330005    0.00229960    -0.36090000
opls_900-331    N    0.66630003    0.19050001    0.07939957    -0.37380000
opls_542-332    N    0.05850004    0.50469987    0.00604989    -0.28840000
opls_900-333    N    0.16950011    0.69069994    0.97669975    -0.37440000
opls_542-334    N    0.44579996    0.99669995    0.00229960    -0.36090000
opls_900-335    N    0.33369997    0.80949999    0.07939957    -0.37380000
opls_542-336    N    0.49530013    0.05850004    0.50604989    -0.28840000
opls_900-337    N    0.30930006    0.16950011    0.47669975    -0.37440000
opls_542-338    N    0.00330005    0.44579996    0.50229960    -0.36090000
opls_900-339    N    0.19050001    0.33369997    0.57939957    -0.37380000
opls_542-340    N    0.50469987    0.94149996    0.50604989    -0.28840000
opls_900-341    N    0.69069994    0.83049989    0.47669975    -0.37430000
opls_542-342    N    0.99669995    0.55420004    0.50229960    -0.36090000
opls_900-343    N    0.80949999    0.66630003    0.57939957    -0.37380000
opls_542-344    N    0.94149996    0.49530013    0.50604989    -0.28840000
opls_900-345    N    0.83049989    0.30930006    0.47669975    -0.37430000
opls_542-346    N    0.55420004    0.00330005    0.50229960    -0.36090000
opls_900-347    N    0.66630003    0.19050001    0.57939957    -0.37380000
opls_542-348    N    0.05850004    0.50469987    0.50604989    -0.28840000
opls_900-349    N    0.16950011    0.69069994    0.47669975    -0.37440000
opls_542-350    N    0.44579996    0.99669995    0.50229960    -0.36090000
opls_900-351    N    0.33369997    0.80949999    0.57939957    -0.37370000
opls_781-352    P    0.24810006    0.13999989    0.09279983    1.01750000
opls_781-353    P    0.25269996    0.36139994    0.96165013    1.01730000
opls_781-354    P    0.75189994    0.86000011    0.09279983    1.01740000
opls_781-355    P    0.74730004    0.63860006    0.96165013    1.01740000
opls_781-356    P    0.86000011    0.24810006    0.09279983    1.01740000
opls_781-357    P    0.63860006    0.25269996    0.96165013    1.01730000
opls_781-358    P    0.13999989    0.75189994    0.09279983    1.01730000
opls_781-359    P    0.36139994    0.74730004    0.96165013    1.01730000
opls_781-360    P    0.24810006    0.13999989    0.59279983    1.01730000
opls_781-361    P    0.25269996    0.36139994    0.46165013    1.01730000
opls_781-362    P    0.75189994    0.86000011    0.59279983    1.01730000
opls_781-363    P    0.74730004    0.63860006    0.46165013    1.01730000
opls_781-364    P    0.86000011    0.24810006    0.59279983    1.01740000
opls_781-365    P    0.63860006    0.25269996    0.46165013    1.01740000
opls_781-366    P    0.13999989    0.75189994    0.59279983    1.01730000
opls_781-367    P    0.36139994    0.74730004    0.46165013    1.01730000
opls_272-368    O    0.24399999    0.12799987    0.23439995    -0.68710000
opls_180-369    O    0.20340002    0.15390013    0.04749981    -0.41510000
opls_180-370    O    0.25959996    0.10039987    0.00290041    -0.41330000
opls_179-371    O    0.29579996    0.24190011    0.24514982    -0.17420000
opls_179-372    O    0.19929995    0.26000011    0.82679957    -0.19950000
opls_272-373    O    0.23569989    0.38389991    0.84924994    -0.68720000
opls_180-374    O    0.29689989    0.35430000    0.89614990    -0.41490000
opls_180-375    O    0.25160004    0.39679992    0.07850027    -0.41430000
opls_272-376    O    0.75600001    0.87200013    0.23439995    -0.68700000
opls_180-377    O    0.79659998    0.84609987    0.04749981    -0.41510000
opls_180-378    O    0.74040004    0.89960013    0.00290041    -0.41330000
opls_179-379    O    0.70420004    0.75809989    0.24514982    -0.17420000
opls_179-380    O    0.80070005    0.73999989    0.82679957    -0.19950000
opls_272-381    O    0.76430011    0.61610009    0.84924994    -0.68720000
opls_180-382    O    0.70310011    0.64570000    0.89614990    -0.41490000
opls_180-383    O    0.74839996    0.60320008    0.07850027    -0.41430000
opls_272-384    O    0.87200013    0.24399999    0.23439995    -0.68720000
opls_180-385    O    0.84609987    0.20340002    0.04749981    -0.41520000
opls_180-386    O    0.89960013    0.25959996    0.00290041    -0.41330000
opls_179-387    O    0.75809989    0.29579996    0.24514982    -0.17420000
opls_179-388    O    0.73999989    0.19929995    0.82679957    -0.19950000
opls_272-389    O    0.61610009    0.23569989    0.84924994    -0.68710000
opls_180-390    O    0.64570000    0.29689989    0.89614990    -0.41490000
opls_180-391    O    0.60320008    0.25160004    0.07850027    -0.41430000
opls_272-392    O    0.12799987    0.75600001    0.23439995    -0.68710000
opls_180-393    O    0.15390013    0.79659998    0.04749981    -0.41520000
opls_180-394    O    0.10039987    0.74040004    0.00290041    -0.41310000
opls_179-395    O    0.24190011    0.70420004    0.24514982    -0.17420000
opls_179-396    O    0.26000011    0.80070005    0.82679957    -0.19950000
opls_272-397    O    0.38389991    0.76430011    0.84924994    -0.68720000
opls_180-398    O    0.35430000    0.70310011    0.89614990    -0.41490000
opls_180-399    O    0.39679992    0.74839996    0.07850027    -0.41430000
opls_272-400    O    0.24399999    0.12799987    0.73439995    -0.68720000
opls_180-401    O    0.20340002    0.15390013    0.54749981    -0.41520000
opls_180-402    O    0.25959996    0.10039987    0.50290041    -0.41320000
opls_179-403    O    0.29579996    0.24190011    0.74514982    -0.17420000
opls_179-404    O    0.19929995    0.26000011    0.32679957    -0.19950000
opls_272-405    O    0.23569989    0.38389991    0.34924994    -0.68710000
opls_180-406    O    0.29689989    0.35430000    0.39614990    -0.41490000
opls_180-407    O    0.25160004    0.39679992    0.57850027    -0.41430000
opls_272-408    O    0.75600001    0.87200013    0.73439995    -0.68700000
opls_180-409    O    0.79659998    0.84609987    0.54749981    -0.41520000
opls_180-410    O    0.74040004    0.89960013    0.50290041    -0.41330000
opls_179-411    O    0.70420004    0.75809989    0.74514982    -0.17420000
opls_179-412    O    0.80070005    0.73999989    0.32679957    -0.19950000
opls_272-413    O    0.76430011    0.61610009    0.34924994    -0.68710000
opls_180-414    O    0.70310011    0.64570000    0.39614990    -0.41480000
opls_180-415    O    0.74839996    0.60320008    0.57850027    -0.41430000
opls_272-416    O    0.87200013    0.24399999    0.73439995    -0.68720000
opls_180-417    O    0.84609987    0.20340002    0.54749981    -0.41520000
opls_180-418    O    0.89960013    0.25959996    0.50290041    -0.41320000
opls_179-419    O    0.75809989    0.29579996    0.74514982    -0.17420000
opls_179-420    O    0.73999989    0.19929995    0.32679957    -0.19950000
opls_272-421    O    0.61610009    0.23569989    0.34924994    -0.68720000
opls_180-422    O    0.64570000    0.29689989    0.39614990    -0.41490000
opls_180-423    O    0.60320008    0.25160004    0.57850027    -0.41430000
opls_272-424    O    0.12799987    0.75600001    0.73439995    -0.68710000
opls_180-425    O    0.15390013    0.79659998    0.54749981    -0.41520000
opls_180-426    O    0.10039987    0.74040004    0.50290041    -0.41330000
opls_179-427    O    0.24190011    0.70420004    0.74514982    -0.17420000
opls_179-428    O    0.26000011    0.80070005    0.32679957    -0.19950000
opls_272-429    O    0.38389991    0.76430011    0.34924994    -0.68720000
opls_180-430    O    0.35430000    0.70310011    0.39614990    -0.41480000
opls_180-431    O    0.39679992    0.74839996    0.57850027    -0.41430000
opls_547-432    H    0.45330005    0.13539998    0.91519983    0.12680000
opls_547-433    H    0.36389997    0.02939997    0.10435014    0.12450000
opls_146-434    H    0.41280004    0.11919992    0.16829987    0.11940000
opls_146-435    H    0.36209999    0.16450005    0.15945034    0.12030000
opls_146-436    H    0.32169995    0.11440008    0.81494981    0.12450000
opls_146-437    H    0.37259994    0.06880005    0.82174975    0.11960000
opls_910-438    H    0.30699997    0.18389991    0.88919975    0.27420000
opls_702-439    H    0.29900004    0.17810011    0.17120028    0.05720000
opls_146-440    H    0.26100007    0.30269996    0.18075044    0.12020000
opls_146-441    H    0.23719996    0.19720007    0.88984999    0.12150000
opls_545-442    H    0.00220012    0.46800003    0.93890030    0.28130000
opls_146-443    H    0.08919987    0.37969987    0.86099989    0.12040000
opls_146-444    H    0.13979995    0.33469993    0.88830044    0.12520000
opls_146-445    H    0.12429995    0.43659987    0.20165032    0.11880000
opls_146-446    H    0.17470010    0.39120006    0.22904974    0.12820000
opls_702-447    H    0.20240006    0.32279988    0.88800004    0.08140000
opls_910-448    H    0.19499994    0.32410001    0.17290003    0.27760000
opls_547-449    H    0.14020010    0.47099990    0.92500000    0.10260000
opls_547-450    H    0.04589993    0.36989998    0.11510001    0.11980000
opls_140-451    H    0.17859995    0.11069989    0.14774983    0.06010000
opls_140-452    H    0.18889997    0.10140010    0.98139973    0.06020000
opls_140-453    H    0.13090004    0.15690000    0.08095007    0.17670000
opls_140-454    H    0.12159998    0.11110003    0.01789965    0.17670000
opls_140-455    H    0.14079991    0.14650002    0.91579968    0.17710000
opls_140-456    H    0.24399999    0.06239989    0.14250038    0.05950000
opls_140-457    H    0.29239995    0.07830005    0.14815005    0.06040000
opls_140-458    H    0.28809995    0.01370003    0.06789965    0.17430000
opls_140-459    H    0.30500006    0.04450011    0.94510039    0.17710000
opls_140-460    H    0.25740012    0.02859995    0.94129972    0.10840000
opls_140-461    H    0.27159998    0.45789995    0.96365028    0.17430000
opls_140-462    H    0.30410007    0.42480006    0.89845045    0.17800000
opls_140-463    H    0.31960007    0.45799992    0.01394973    0.17800000
opls_140-464    H    0.30920009    0.39210005    0.10739980    0.06020000
opls_140-465    H    0.28580013    0.42939997    0.18245019    0.06030000
opls_140-466    H    0.36780010    0.35629991    0.97274983    0.10560000
opls_140-467    H    0.36229993    0.32630014    0.83470036    0.10570000
opls_140-468    H    0.37169995    0.30619995    0.98969979    0.11270000
opls_140-469    H    0.30559986    0.29869986    0.93295022    0.06060000
opls_140-470    H    0.31159987    0.32980012    0.06970017    0.05920000
opls_185-471    H    0.20209988    0.21090010    0.72010039    0.07990000
opls_185-472    H    0.16049995    0.23700002    0.70439957    0.07580000
opls_185-473    H    0.16810000    0.21139994    0.84870047    0.07560000
opls_185-474    H    0.34509991    0.23469993    0.14275040    0.08640000
opls_185-475    H    0.34990003    0.24710010    0.30860046    0.07430000
opls_185-476    H    0.33539998    0.28160010    0.19514982    0.07920000
opls_547-477    H    0.54669995    0.86460002    0.91519983    0.12680000
opls_547-478    H    0.63610003    0.97060003    0.10435014    0.12450000
opls_146-479    H    0.58719996    0.88080008    0.16829987    0.11940000
opls_146-480    H    0.63790001    0.83549995    0.15945034    0.12030000
opls_146-481    H    0.67830005    0.88559992    0.81494981    0.12450000
opls_146-482    H    0.62740006    0.93119995    0.82174975    0.11960000
opls_910-483    H    0.69300003    0.81610009    0.88919975    0.27420000
opls_702-484    H    0.70099996    0.82189989    0.17120028    0.05720000
opls_146-485    H    0.73899993    0.69730004    0.18075044    0.12020000
opls_146-486    H    0.76280004    0.80279993    0.88984999    0.12150000
opls_545-487    H    0.99779988    0.53199997    0.93890030    0.28130000
opls_146-488    H    0.91080013    0.62030013    0.86099989    0.12040000
opls_146-489    H    0.86020005    0.66530007    0.88830044    0.12520000
opls_146-490    H    0.87570005    0.56340013    0.20165032    0.11880000
opls_146-491    H    0.82529990    0.60879994    0.22904974    0.12820000
opls_702-492    H    0.79759994    0.67720012    0.88800004    0.08140000
opls_910-493    H    0.80500006    0.67589999    0.17290003    0.27760000
opls_547-494    H    0.85979990    0.52900010    0.92500000    0.10260000
opls_547-495    H    0.95410007    0.63010002    0.11510001    0.11980000
opls_140-496    H    0.82140005    0.88930011    0.14774983    0.06010000
opls_140-497    H    0.81110003    0.89859990    0.98139973    0.06020000
opls_140-498    H    0.86909996    0.84310000    0.08095007    0.17670000
opls_140-499    H    0.87840002    0.88889997    0.01789965    0.17670000
opls_140-500    H    0.85920009    0.85349998    0.91579968    0.17720000
opls_140-501    H    0.75600001    0.93760011    0.14250038    0.05950000
opls_140-502    H    0.70760005    0.92169995    0.14815005    0.06040000
opls_140-503    H    0.71190005    0.98629997    0.06789965    0.17430000
opls_140-504    H    0.69499994    0.95549989    0.94510039    0.17710000
opls_140-505    H    0.74259988    0.97140005    0.94129972    0.10850000
opls_140-506    H    0.72840002    0.54210005    0.96365028    0.17430000
opls_140-507    H    0.69589993    0.57519994    0.89845045    0.17810000
opls_140-508    H    0.68039993    0.54200008    0.01394973    0.17800000
opls_140-509    H    0.69079991    0.60789995    0.10739980    0.06020000
opls_140-510    H    0.71419987    0.57060003    0.18245019    0.06030000
opls_140-511    H    0.63219990    0.64370009    0.97274983    0.10560000
opls_140-512    H    0.63770007    0.67369986    0.83470036    0.10570000
opls_140-513    H    0.62830005    0.69380005    0.98969979    0.11270000
opls_140-514    H    0.69440014    0.70130014    0.93295022    0.06060000
opls_140-515    H    0.68840013    0.67019988    0.06970017    0.05920000
opls_185-516    H    0.79790012    0.78909990    0.72010039    0.07990000
opls_185-517    H    0.83950005    0.76299998    0.70439957    0.07580000
opls_185-518    H    0.83190000    0.78860006    0.84870047    0.07560000
opls_185-519    H    0.65490009    0.76530007    0.14275040    0.08640000
opls_185-520    H    0.65009997    0.75289990    0.30860046    0.07430000
opls_185-521    H    0.66460002    0.71839990    0.19514982    0.07920000
opls_547-522    H    0.86460002    0.45330005    0.91519983    0.12680000
opls_547-523    H    0.97060003    0.36389997    0.10435014    0.12450000
opls_146-524    H    0.88080008    0.41280004    0.16829987    0.11940000
opls_146-525    H    0.83549995    0.36209999    0.15945034    0.12040000
opls_146-526    H    0.88559992    0.32169995    0.81494981    0.12450000
opls_146-527    H    0.93119995    0.37259994    0.82174975    0.11960000
opls_910-528    H    0.81610009    0.30699997    0.88919975    0.27420000
opls_702-529    H    0.82189989    0.29900004    0.17120028    0.05720000
opls_146-530    H    0.69730004    0.26100007    0.18075044    0.12020000
opls_146-531    H    0.80279993    0.23719996    0.88984999    0.12150000
opls_545-532    H    0.53199997    0.00220012    0.93890030    0.28130000
opls_146-533    H    0.62030013    0.08919987    0.86099989    0.12050000
opls_146-534    H    0.66530007    0.13979995    0.88830044    0.12520000
opls_146-535    H    0.56340013    0.12429995    0.20165032    0.11880000
opls_146-536    H    0.60879994    0.17470010    0.22904974    0.12820000
opls_702-537    H    0.67720012    0.20240006    0.88800004    0.08140000
opls_910-538    H    0.67589999    0.19499994    0.17290003    0.27760000
opls_547-539    H    0.52900010    0.14020010    0.92500000    0.10260000
opls_547-540    H    0.63010002    0.04589993    0.11510001    0.11980000
opls_140-541    H    0.88930011    0.17859995    0.14774983    0.06010000
opls_140-542    H    0.89859990    0.18889997    0.98139973    0.06020000
opls_140-543    H    0.84310000    0.13090004    0.08095007    0.17670000
opls_140-544    H    0.88889997    0.12159998    0.01789965    0.17670000
opls_140-545    H    0.85349998    0.14079991    0.91579968    0.17710000
opls_140-546    H    0.93760011    0.24399999    0.14250038    0.05950000
opls_140-547    H    0.92169995    0.29239995    0.14815005    0.06040000
opls_140-548    H    0.98629997    0.28809995    0.06789965    0.17430000
opls_140-549    H    0.95549989    0.30500006    0.94510039    0.17710000
opls_140-550    H    0.97140005    0.25740012    0.94129972    0.10840000
opls_140-551    H    0.54210005    0.27159998    0.96365028    0.17430000
opls_140-552    H    0.57519994    0.30410007    0.89845045    0.17800000
opls_140-553    H    0.54200008    0.31960007    0.01394973    0.17800000
opls_140-554    H    0.60789995    0.30920009    0.10739980    0.06020000
opls_140-555    H    0.57060003    0.28580013    0.18245019    0.06030000
opls_140-556    H    0.64370009    0.36780010    0.97274983    0.10560000
opls_140-557    H    0.67369986    0.36229993    0.83470036    0.10570000
opls_140-558    H    0.69380005    0.37169995    0.98969979    0.11270000
opls_140-559    H    0.70130014    0.30559986    0.93295022    0.06060000
opls_140-560    H    0.67019988    0.31159987    0.06970017    0.05920000
opls_185-561    H    0.78909990    0.20209988    0.72010039    0.07990000
opls_185-562    H    0.76299998    0.16049995    0.70439957    0.07580000
opls_185-563    H    0.78860006    0.16810000    0.84870047    0.07560000
opls_185-564    H    0.76530007    0.34509991    0.14275040    0.08640000
opls_185-565    H    0.75289990    0.34990003    0.30860046    0.07430000
opls_185-566    H    0.71839990    0.33539998    0.19514982    0.07920000
opls_547-567    H    0.13539998    0.54669995    0.91519983    0.12680000
opls_547-568    H    0.02939997    0.63610003    0.10435014    0.12450000
opls_146-569    H    0.11919992    0.58719996    0.16829987    0.11940000
opls_146-570    H    0.16450005    0.63790001    0.15945034    0.12030000
opls_146-571    H    0.11440008    0.67830005    0.81494981    0.12450000
opls_146-572    H    0.06880005    0.62740006    0.82174975    0.11960000
opls_910-573    H    0.18389991    0.69300003    0.88919975    0.27420000
opls_702-574    H    0.17810011    0.70099996    0.17120028    0.05720000
opls_146-575    H    0.30269996    0.73899993    0.18075044    0.12020000
opls_146-576    H    0.19720007    0.76280004    0.88984999    0.12150000
opls_545-577    H    0.46800003    0.99779988    0.93890030    0.28140000
opls_146-578    H    0.37969987    0.91080013    0.86099989    0.12040000
opls_146-579    H    0.33469993    0.86020005    0.88830044    0.12520000
opls_146-580    H    0.43659987    0.87570005    0.20165032    0.11880000
opls_146-581    H    0.39120006    0.82529990    0.22904974    0.12820000
opls_702-582    H    0.32279988    0.79759994    0.88800004    0.08140000
opls_910-583    H    0.32410001    0.80500006    0.17290003    0.27760000
opls_547-584    H    0.47099990    0.85979990    0.92500000    0.10260000
opls_547-585    H    0.36989998    0.95410007    0.11510001    0.11980000
opls_140-586    H    0.11069989    0.82140005    0.14774983    0.06010000
opls_140-587    H    0.10140010    0.81110003    0.98139973    0.06020000
opls_140-588    H    0.15690000    0.86909996    0.08095007    0.17670000
opls_140-589    H    0.11110003    0.87840002    0.01789965    0.17670000
opls_140-590    H    0.14650002    0.85920009    0.91579968    0.17710000
opls_140-591    H    0.06239989    0.75600001    0.14250038    0.05950000
opls_140-592    H    0.07830005    0.70760005    0.14815005    0.06040000
opls_140-593    H    0.01370003    0.71190005    0.06789965    0.17430000
opls_140-594    H    0.04450011    0.69499994    0.94510039    0.17710000
opls_140-595    H    0.02859995    0.74259988    0.94129972    0.10840000
opls_140-596    H    0.45789995    0.72840002    0.96365028    0.17430000
opls_140-597    H    0.42480006    0.69589993    0.89845045    0.17800000
opls_140-598    H    0.45799992    0.68039993    0.01394973    0.17800000
opls_140-599    H    0.39210005    0.69079991    0.10739980    0.06020000
opls_140-600    H    0.42939997    0.71419987    0.18245019    0.06030000
opls_140-601    H    0.35629991    0.63219990    0.97274983    0.10560000
opls_140-602    H    0.32630014    0.63770007    0.83470036    0.10570000
opls_140-603    H    0.30619995    0.62830005    0.98969979    0.11270000
opls_140-604    H    0.29869986    0.69440014    0.93295022    0.06060000
opls_140-605    H    0.32980012    0.68840013    0.06970017    0.05920000
opls_185-606    H    0.21090010    0.79790012    0.72010039    0.07990000
opls_185-607    H    0.23700002    0.83950005    0.70439957    0.07580000
opls_185-608    H    0.21139994    0.83190000    0.84870047    0.07560000
opls_185-609    H    0.23469993    0.65490009    0.14275040    0.08640000
opls_185-610    H    0.24710010    0.65009997    0.30860046    0.07430000
opls_185-611    H    0.28160010    0.66460002    0.19514982    0.07920000
opls_547-612    H    0.45330005    0.13539998    0.41519983    0.12680000
opls_547-613    H    0.36389997    0.02939997    0.60435014    0.12450000
opls_146-614    H    0.41280004    0.11919992    0.66829987    0.11940000
opls_146-615    H    0.36209999    0.16450005    0.65945034    0.12030000
opls_146-616    H    0.32169995    0.11440008    0.31494981    0.12450000
opls_146-617    H    0.37259994    0.06880005    0.32174975    0.11960000
opls_910-618    H    0.30699997    0.18389991    0.38919975    0.27420000
opls_702-619    H    0.29900004    0.17810011    0.67120028    0.05720000
opls_146-620    H    0.26100007    0.30269996    0.68075044    0.12020000
opls_146-621    H    0.23719996    0.19720007    0.38984999    0.12150000
opls_545-622    H    0.00220012    0.46800003    0.43890030    0.28130000
opls_146-623    H    0.08919987    0.37969987    0.36099989    0.12050000
opls_146-624    H    0.13979995    0.33469993    0.38830044    0.12520000
opls_146-625    H    0.12429995    0.43659987    0.70165032    0.11880000
opls_146-626    H    0.17470010    0.39120006    0.72904974    0.12820000
opls_702-627    H    0.20240006    0.32279988    0.38800004    0.08140000
opls_910-628    H    0.19499994    0.32410001    0.67290003    0.27760000
opls_547-629    H    0.14020010    0.47099990    0.42500000    0.10260000
opls_547-630    H    0.04589993    0.36989998    0.61510001    0.11980000
opls_140-631    H    0.17859995    0.11069989    0.64774983    0.06010000
opls_140-632    H    0.18889997    0.10140010    0.48139973    0.06020000
opls_140-633    H    0.13090004    0.15690000    0.58095007    0.17670000
opls_140-634    H    0.12159998    0.11110003    0.51789965    0.17670000
opls_140-635    H    0.14079991    0.14650002    0.41579968    0.17710000
opls_140-636    H    0.24399999    0.06239989    0.64250038    0.05950000
opls_140-637    H    0.29239995    0.07830005    0.64815005    0.06040000
opls_140-638    H    0.28809995    0.01370003    0.56789965    0.17430000
opls_140-639    H    0.30500006    0.04450011    0.44510039    0.17710000
opls_140-640    H    0.25740012    0.02859995    0.44129972    0.10840000
opls_140-641    H    0.27159998    0.45789995    0.46365028    0.17430000
opls_140-642    H    0.30410007    0.42480006    0.39845045    0.17800000
opls_140-643    H    0.31960007    0.45799992    0.51394973    0.17800000
opls_140-644    H    0.30920009    0.39210005    0.60739980    0.06020000
opls_140-645    H    0.28580013    0.42939997    0.68245019    0.06030000
opls_140-646    H    0.36780010    0.35629991    0.47274983    0.10560000
opls_140-647    H    0.36229993    0.32630014    0.33470036    0.10570000
opls_140-648    H    0.37169995    0.30619995    0.48969979    0.11270000
opls_140-649    H    0.30559986    0.29869986    0.43295022    0.06060000
opls_140-650    H    0.31159987    0.32980012    0.56970017    0.05920000
opls_185-651    H    0.20209988    0.21090010    0.22010039    0.08000000
opls_185-652    H    0.16049995    0.23700002    0.20439957    0.07580000
opls_185-653    H    0.16810000    0.21139994    0.34870047    0.07560000
opls_185-654    H    0.34509991    0.23469993    0.64275040    0.08640000
opls_185-655    H    0.34990003    0.24710010    0.80860046    0.07430000
opls_185-656    H    0.33539998    0.28160010    0.69514982    0.07920000
opls_547-657    H    0.54669995    0.86460002    0.41519983    0.12680000
opls_547-658    H    0.63610003    0.97060003    0.60435014    0.12450000
opls_146-659    H    0.58719996    0.88080008    0.66829987    0.11940000
opls_146-660    H    0.63790001    0.83549995    0.65945034    0.12030000
opls_146-661    H    0.67830005    0.88559992    0.31494981    0.12450000
opls_146-662    H    0.62740006    0.93119995    0.32174975    0.11960000
opls_910-663    H    0.69300003    0.81610009    0.38919975    0.27420000
opls_702-664    H    0.70099996    0.82189989    0.67120028    0.05720000
opls_146-665    H    0.73899993    0.69730004    0.68075044    0.12020000
opls_146-666    H    0.76280004    0.80279993    0.38984999    0.12150000
opls_545-667    H    0.99779988    0.53199997    0.43890030    0.28130000
opls_146-668    H    0.91080013    0.62030013    0.36099989    0.12040000
opls_146-669    H    0.86020005    0.66530007    0.38830044    0.12520000
opls_146-670    H    0.87570005    0.56340013    0.70165032    0.11880000
opls_146-671    H    0.82529990    0.60879994    0.72904974    0.12820000
opls_702-672    H    0.79759994    0.67720012    0.38800004    0.08140000
opls_910-673    H    0.80500006    0.67589999    0.67290003    0.27760000
opls_547-674    H    0.85979990    0.52900010    0.42500000    0.10260000
opls_547-675    H    0.95410007    0.63010002    0.61510001    0.11980000
opls_140-676    H    0.82140005    0.88930011    0.64774983    0.06010000
opls_140-677    H    0.81110003    0.89859990    0.48139973    0.06020000
opls_140-678    H    0.86909996    0.84310000    0.58095007    0.17670000
opls_140-679    H    0.87840002    0.88889997    0.51789965    0.17670000
opls_140-680    H    0.85920009    0.85349998    0.41579968    0.17710000
opls_140-681    H    0.75600001    0.93760011    0.64250038    0.05950000
opls_140-682    H    0.70760005    0.92169995    0.64815005    0.06040000
opls_140-683    H    0.71190005    0.98629997    0.56789965    0.17430000
opls_140-684    H    0.69499994    0.95549989    0.44510039    0.17710000
opls_140-685    H    0.74259988    0.97140005    0.44129972    0.10840000
opls_140-686    H    0.72840002    0.54210005    0.46365028    0.17430000
opls_140-687    H    0.69589993    0.57519994    0.39845045    0.17800000
opls_140-688    H    0.68039993    0.54200008    0.51394973    0.17800000
opls_140-689    H    0.69079991    0.60789995    0.60739980    0.06020000
opls_140-690    H    0.71419987    0.57060003    0.68245019    0.06030000
opls_140-691    H    0.63219990    0.64370009    0.47274983    0.10560000
opls_140-692    H    0.63770007    0.67369986    0.33470036    0.10570000
opls_140-693    H    0.62830005    0.69380005    0.48969979    0.11280000
opls_140-694    H    0.69440014    0.70130014    0.43295022    0.06060000
opls_140-695    H    0.68840013    0.67019988    0.56970017    0.05920000
opls_185-696    H    0.79790012    0.78909990    0.22010039    0.07990000
opls_185-697    H    0.83950005    0.76299998    0.20439957    0.07580000
opls_185-698    H    0.83190000    0.78860006    0.34870047    0.07560000
opls_185-699    H    0.65490009    0.76530007    0.64275040    0.08640000
opls_185-700    H    0.65009997    0.75289990    0.80860046    0.07430000
opls_185-701    H    0.66460002    0.71839990    0.69514982    0.07920000
opls_547-702    H    0.86460002    0.45330005    0.41519983    0.12680000
opls_547-703    H    0.97060003    0.36389997    0.60435014    0.12450000
opls_146-704    H    0.88080008    0.41280004    0.66829987    0.11940000
opls_146-705    H    0.83549995    0.36209999    0.65945034    0.12030000
opls_146-706    H    0.88559992    0.32169995    0.31494981    0.12450000
opls_146-707    H    0.93119995    0.37259994    0.32174975    0.11960000
opls_910-708    H    0.81610009    0.30699997    0.38919975    0.27420000
opls_702-709    H    0.82189989    0.29900004    0.67120028    0.05720000
opls_146-710    H    0.69730004    0.26100007    0.68075044    0.12020000
opls_146-711    H    0.80279993    0.23719996    0.38984999    0.12150000
opls_545-712    H    0.53199997    0.00220012    0.43890030    0.28130000
opls_146-713    H    0.62030013    0.08919987    0.36099989    0.12040000
opls_146-714    H    0.66530007    0.13979995    0.38830044    0.12520000
opls_146-715    H    0.56340013    0.12429995    0.70165032    0.11880000
opls_146-716    H    0.60879994    0.17470010    0.72904974    0.12820000
opls_702-717    H    0.67720012    0.20240006    0.38800004    0.08140000
opls_910-718    H    0.67589999    0.19499994    0.67290003    0.27780000
opls_547-719    H    0.52900010    0.14020010    0.42500000    0.10260000
opls_547-720    H    0.63010002    0.04589993    0.61510001    0.11980000
opls_140-721    H    0.88930011    0.17859995    0.64774983    0.06010000
opls_140-722    H    0.89859990    0.18889997    0.48139973    0.06020000
opls_140-723    H    0.84310000    0.13090004    0.58095007    0.17670000
opls_140-724    H    0.88889997    0.12159998    0.51789965    0.17670000
opls_140-725    H    0.85349998    0.14079991    0.41579968    0.17710000
opls_140-726    H    0.93760011    0.24399999    0.64250038    0.05950000
opls_140-727    H    0.92169995    0.29239995    0.64815005    0.06040000
opls_140-728    H    0.98629997    0.28809995    0.56789965    0.17430000
opls_140-729    H    0.95549989    0.30500006    0.44510039    0.17710000
opls_140-730    H    0.97140005    0.25740012    0.44129972    0.10840000
opls_140-731    H    0.54210005    0.27159998    0.46365028    0.17430000
opls_140-732    H    0.57519994    0.30410007    0.39845045    0.17800000
opls_140-733    H    0.54200008    0.31960007    0.51394973    0.17800000
opls_140-734    H    0.60789995    0.30920009    0.60739980    0.06020000
opls_140-735    H    0.57060003    0.28580013    0.68245019    0.06030000
opls_140-736    H    0.64370009    0.36780010    0.47274983    0.10560000
opls_140-737    H    0.67369986    0.36229993    0.33470036    0.10570000
opls_140-738    H    0.69380005    0.37169995    0.48969979    0.11270000
opls_140-739    H    0.70130014    0.30559986    0.43295022    0.06060000
opls_140-740    H    0.67019988    0.31159987    0.56970017    0.05920000
opls_185-741    H    0.78909990    0.20209988    0.22010039    0.07990000
opls_185-742    H    0.76299998    0.16049995    0.20439957    0.07580000
opls_185-743    H    0.78860006    0.16810000    0.34870047    0.07560000
opls_185-744    H    0.76530007    0.34509991    0.64275040    0.08650000
opls_185-745    H    0.75289990    0.34990003    0.80860046    0.07430000
opls_185-746    H    0.71839990    0.33539998    0.69514982    0.07920000
opls_547-747    H    0.13539998    0.54669995    0.41519983    0.12680000
opls_547-748    H    0.02939997    0.63610003    0.60435014    0.12450000
opls_146-749    H    0.11919992    0.58719996    0.66829987    0.11940000
opls_146-750    H    0.16450005    0.63790001    0.65945034    0.12030000
opls_146-751    H    0.11440008    0.67830005    0.31494981    0.12450000
opls_146-752    H    0.06880005    0.62740006    0.32174975    0.11960000
opls_910-753    H    0.18389991    0.69300003    0.38919975    0.27420000
opls_702-754    H    0.17810011    0.70099996    0.67120028    0.05720000
opls_146-755    H    0.30269996    0.73899993    0.68075044    0.12020000
opls_146-756    H    0.19720007    0.76280004    0.38984999    0.12150000
opls_545-757    H    0.46800003    0.99779988    0.43890030    0.28130000
opls_146-758    H    0.37969987    0.91080013    0.36099989    0.12040000
opls_146-759    H    0.33469993    0.86020005    0.38830044    0.12520000
opls_146-760    H    0.43659987    0.87570005    0.70165032    0.11880000
opls_146-761    H    0.39120006    0.82529990    0.72904974    0.12820000
opls_702-762    H    0.32279988    0.79759994    0.38800004    0.08150000
opls_910-763    H    0.32410001    0.80500006    0.67290003    0.27760000
opls_547-764    H    0.47099990    0.85979990    0.42500000    0.10260000
opls_547-765    H    0.36989998    0.95410007    0.61510001    0.11980000
opls_140-766    H    0.11069989    0.82140005    0.64774983    0.06010000
opls_140-767    H    0.10140010    0.81110003    0.48139973    0.06020000
opls_140-768    H    0.15690000    0.86909996    0.58095007    0.17670000
opls_140-769    H    0.11110003    0.87840002    0.51789965    0.17670000
opls_140-770    H    0.14650002    0.85920009    0.41579968    0.17710000
opls_140-771    H    0.06239989    0.75600001    0.64250038    0.05950000
opls_140-772    H    0.07830005    0.70760005    0.64815005    0.06040000
opls_140-773    H    0.01370003    0.71190005    0.56789965    0.17430000
opls_140-774    H    0.04450011    0.69499994    0.44510039    0.17720000
opls_140-775    H    0.02859995    0.74259988    0.44129972    0.10840000
opls_140-776    H    0.45789995    0.72840002    0.46365028    0.17430000
opls_140-777    H    0.42480006    0.69589993    0.39845045    0.17800000
opls_140-778    H    0.45799992    0.68039993    0.51394973    0.17800000
opls_140-779    H    0.39210005    0.69079991    0.60739980    0.06020000
opls_140-780    H    0.42939997    0.71419987    0.68245019    0.06030000
opls_140-781    H    0.35629991    0.63219990    0.47274983    0.10560000
opls_140-782    H    0.32630014    0.63770007    0.33470036    0.10570000
opls_140-783    H    0.30619995    0.62830005    0.48969979    0.11270000
opls_140-784    H    0.29869986    0.69440014    0.43295022    0.06060000
opls_140-785    H    0.32980012    0.68840013    0.56970017    0.05920000
opls_185-786    H    0.21090010    0.79790012    0.22010039    0.07990000
opls_185-787    H    0.23700002    0.83950005    0.20439957    0.07580000
opls_185-788    H    0.21139994    0.83190000    0.34870047    0.07560000
opls_185-789    H    0.23469993    0.65490009    0.64275040    0.08640000
opls_185-790    H    0.24710010    0.65009997    0.80860046    0.07430000
opls_185-791    H    0.28160010    0.66460002    0.69514982    0.07920000
