#======================================================================
# Crystal Data Generated By AuToFF
#----------------------------------------------------------------------

data_AuToFF_phase_1

_cell_length_a                         51.1228
_cell_length_b                         51.1228
_cell_length_c                         12.6952
_cell_angle_alpha                      90.00
_cell_angle_beta                       90.00
_cell_angle_gamma                      120.00
_symmetry_space_group_name_H-M_alt     'P 1'
_symmetry_space_group_IT_number        1

loop_
_space_group_symop_operation_xyz
   'x, y, z'

loop_
   _atom_site_label
   _atom_site_type_symbol
   _atom_site_fract_x
   _atom_site_fract_y
   _atom_site_fract_z
   _atom_site_charge
opls_523-0    C    0.27208002    0.24473005    0.10965010    -0.11770000
opls_145-1    C    0.24500001    0.21750007    0.09946988    -0.16760000
opls_145-2    C    0.15249011    0.12515009    0.93197035    -0.12020000
opls_145-3    C    0.12728003    0.09994999    0.88937000    -0.12020000
opls_531-4    C    0.35403004    0.32787004    0.11159021    0.36770000
opls_523-5    C    0.41093999    0.35536992    0.11529003    -0.12060000
opls_145-6    C    0.43840011    0.35586006    0.11041969    -0.17170000
opls_145-7    C    0.43899002    0.32864002    0.09692010    0.20750000
opls_145-8    C    0.41121006    0.30112003    0.09216003    -0.17250000
opls_523-9    C    0.38389001    0.30089010    0.09697996    -0.11950000
opls_700-10    C    0.38316009    0.32801008    0.10806998    -0.00220000
opls_142-11    C    0.49146014    0.34814011    0.05922002    0.01500000
opls_145-12    C    0.54796000    0.37219009    0.07600038    -0.12040000
opls_145-13    C    0.57327991    0.37067000    0.10861034    -0.11770000
opls_700-14    C    0.57057007    0.34282002    0.13755987    0.06710000
opls_145-15    C    0.54236993    0.31629995    0.12419970    -0.12070000
opls_145-16    C    0.51697995    0.31792010    0.09469012    -0.12060000
opls_700-17    C    0.51908993    0.34604993    0.07409966    0.06330000
opls_700-18    C    0.64067995    0.33653998    0.19463025    0.06380000
opls_700-19    C    0.59579996    0.34120009    0.19392999    0.02700000
opls_145-20    C    0.38158007    0.66108005    0.86146969    -0.16330000
opls_531-21    C    0.30167992    0.30167996    0.11380994    0.36750000
opls_145-22    C    0.21749995    0.21750007    0.09029003    0.20840000
opls_700-23    C    0.27260997    0.27261007    0.11226999    -0.00190000
opls_142-24    C    0.18056995    0.18056997    0.97993966    0.01320000
opls_700-25    C    0.10096992    0.10097001    0.86445980    0.06760000
opls_700-26    C    0.15197999    0.15198005    0.95197004    0.05730000
opls_700-27    C    0.07517000    0.07517001    0.80595973    0.02710000
opls_700-28    C    0.02773993    0.02773998    0.80537999    0.06760000
opls_145-29    C    0.94872000    0.94872005    0.36134996    -0.15370000
opls_701-30    C    0.33332994    0.66667005    0.85175972    -0.06980000
opls_701-31    C    0.00000000    0.00000000    0.35178020    -0.06980000
opls_523-32    C    0.75526990    0.02734991    0.10965010    -0.11770000
opls_145-33    C    0.78250001    0.02750011    0.09946988    -0.16760000
opls_145-34    C    0.87484993    0.02733997    0.93197035    -0.12020000
opls_145-35    C    0.90004996    0.02733003    0.88937000    -0.12020000
opls_531-36    C    0.67212999    0.02616004    0.11159021    0.36770000
opls_523-37    C    0.64462997    0.05557009    0.11529003    -0.12060000
opls_145-38    C    0.64413999    0.08254008    0.11041969    -0.17170000
opls_145-39    C    0.67135999    0.11035009    0.09692010    0.20750000
opls_145-40    C    0.69888010    0.11009011    0.09216003    -0.17250000
opls_523-41    C    0.69910989    0.08299995    0.09697996    -0.11950000
opls_700-42    C    0.67199000    0.05514997    0.10806998    -0.00220000
opls_142-43    C    0.65186005    0.14332004    0.05922002    0.01500000
opls_145-44    C    0.62781007    0.17577005    0.07600038    -0.12040000
opls_145-45    C    0.62933004    0.20260995    0.10861034    -0.11770000
opls_700-46    C    0.65717993    0.22774997    0.13755987    0.06710000
opls_145-47    C    0.68369993    0.22606996    0.12419970    -0.12070000
opls_145-48    C    0.68208005    0.19905998    0.09469012    -0.12060000
opls_700-49    C    0.65394998    0.17303998    0.07409966    0.06330000
opls_700-50    C    0.66346008    0.30414012    0.19463025    0.06760000
opls_700-51    C    0.65880005    0.25460003    0.19392999    0.02700000
opls_145-52    C    0.33892001    0.72050005    0.86146969    -0.16330000
opls_531-53    C    0.69831993    1.00000000    0.11380994    0.36770000
opls_145-54    C    0.78249998    0.00000000    0.09029003    0.20840000
opls_700-55    C    0.72738993    0.00000000    0.11226999    -0.00190000
opls_142-56    C    0.81943008    0.00000000    0.97993966    0.01320000
opls_700-57    C    0.89902998    0.00000000    0.86445980    0.06760000
opls_700-58    C    0.84802006    0.00000000    0.95197004    0.05730000
opls_700-59    C    0.92483002    0.00000000    0.80595973    0.02710000
opls_700-60    C    0.97225993    0.00000000    0.80537999    0.06760000
opls_145-61    C    0.05128006    0.00000000    0.36134996    -0.15370000
opls_523-62    C    0.97265008    0.72792004    0.10965010    -0.11770000
opls_145-63    C    0.97250010    0.75500004    0.09946988    -0.16760000
opls_145-64    C    0.97266007    0.84751017    0.93197035    -0.12020000
opls_145-65    C    0.97267001    0.87271998    0.88937000    -0.12020000
opls_531-66    C    0.97384008    0.64597015    0.11159021    0.36770000
opls_523-67    C    0.94443004    0.58905999    0.11529003    -0.12060000
opls_145-68    C    0.91746001    0.56160009    0.11041969    -0.17170000
opls_145-69    C    0.88965010    0.56101012    0.09692010    0.20740000
opls_145-70    C    0.88990996    0.58879008    0.09216003    -0.17250000
opls_523-71    C    0.91699991    0.61610995    0.09697996    -0.11950000
opls_700-72    C    0.94484991    0.61683995    0.10806998    -0.00220000
opls_142-73    C    0.85668011    0.50854007    0.05922002    0.01500000
opls_145-74    C    0.82423004    0.45204009    0.07600038    -0.12040000
opls_145-75    C    0.79739005    0.42672005    0.10861034    -0.11770000
opls_700-76    C    0.77225000    0.42943002    0.13755987    0.06710000
opls_145-77    C    0.77393014    0.45763009    0.12419970    -0.12070000
opls_145-78    C    0.80094011    0.48302014    0.09469012    -0.12060000
opls_700-79    C    0.82696009    0.48091009    0.07409966    0.06330000
opls_700-80    C    0.69586008    0.35932013    0.19463025    0.06760000
opls_700-81    C    0.74540011    0.40420011    0.19392999    0.02700000
opls_145-82    C    0.27950003    0.61842013    0.86146969    -0.16330000
opls_531-83    C    0.99999996    0.69832004    0.11380994    0.36760000
opls_145-84    C    0.99999999    0.78250015    0.09029003    0.20840000
opls_700-85    C    0.00000002    0.72739016    0.11226999    -0.00190000
opls_142-86    C    0.99999997    0.81943003    0.97993966    0.01320000
opls_700-87    C    0.99999990    0.89902999    0.86445980    0.06760000
opls_700-88    C    0.00000006    0.84802018    0.95197004    0.05730000
opls_700-89    C    0.99999999    0.92482999    0.80595973    0.02710000
opls_700-90    C    0.99999995    0.97226002    0.80537999    0.06760000
opls_145-91    C    0.99999995    0.05127995    0.36134996    -0.15370000
opls_523-92    C    0.72791998    0.75526995    0.60965010    -0.11770000
opls_145-93    C    0.75500011    0.78250015    0.59946988    -0.16760000
opls_145-94    C    0.84751000    0.87485014    0.43197035    -0.12020000
opls_145-95    C    0.87271997    0.90005001    0.38937000    -0.12020000
opls_531-96    C    0.64596996    0.67212996    0.61159021    0.36770000
opls_523-97    C    0.58906001    0.64463008    0.61529003    -0.12060000
opls_145-98    C    0.56159989    0.64413994    0.61041969    -0.17170000
opls_145-99    C    0.56100998    0.67135998    0.59692010    0.20750000
opls_145-100    C    0.58878994    0.69887997    0.59216003    -0.17260000
opls_523-101    C    0.61611010    0.69911013    0.59697996    -0.11950000
opls_700-102    C    0.61684002    0.67199015    0.60806998    -0.00220000
opls_142-103    C    0.50853997    0.65186011    0.55922002    0.01500000
opls_145-104    C    0.45204011    0.62781014    0.57600038    -0.12040000
opls_145-105    C    0.42672009    0.62933000    0.60861034    -0.11770000
opls_700-106    C    0.42942993    0.65717998    0.63755987    0.06710000
opls_145-107    C    0.45763007    0.68370005    0.62419970    -0.12070000
opls_145-108    C    0.48302016    0.68208013    0.59469012    -0.12060000
opls_700-109    C    0.48091007    0.65395007    0.57409966    0.06330000
opls_700-110    C    0.35932005    0.66346002    0.69463025    0.06380000
opls_700-111    C    0.40420016    0.65880013    0.69392999    0.02700000
opls_145-112    C    0.61841993    0.33891995    0.36146969    -0.16330000
opls_531-113    C    0.69832008    0.69832004    0.61380994    0.36770000
opls_145-114    C    0.78250016    0.78250015    0.59029003    0.20840000
opls_700-115    C    0.72739014    0.72739016    0.61226999    -0.00190000
opls_142-116    C    0.81943005    0.81943003    0.47993966    0.01320000
opls_700-117    C    0.89903008    0.89902999    0.36445980    0.06760000
opls_700-118    C    0.84802012    0.84802018    0.45197004    0.05730000
opls_700-119    C    0.92483000    0.92482999    0.30595973    0.02710000
opls_700-120    C    0.97226007    0.97226002    0.30537999    0.06760000
opls_145-121    C    0.05128000    0.05127995    0.86134996    -0.15370000
opls_701-122    C    0.66667006    0.33332995    0.35175972    -0.06980000
opls_701-123    C    0.00000000    0.00000000    0.85178020    -0.06980000
opls_523-124    C    0.24473010    0.97265009    0.60965010    -0.11770000
opls_145-125    C    0.21750011    0.97250012    0.59946988    -0.16760000
opls_145-126    C    0.12515007    0.97266003    0.43197035    -0.12020000
opls_145-127    C    0.09995004    0.97266997    0.38937000    -0.12020000
opls_531-128    C    0.32787012    0.97384019    0.61159021    0.36770000
opls_523-129    C    0.35537014    0.94443014    0.61529003    -0.12060000
opls_145-130    C    0.35586012    0.91746014    0.61041969    -0.17170000
opls_145-131    C    0.32864012    0.88965014    0.59692010    0.20750000
opls_145-132    C    0.30112002    0.88991011    0.59216003    -0.17250000
opls_523-133    C    0.30089011    0.91700005    0.59697996    -0.11950000
opls_700-134    C    0.32801000    0.94485003    0.60806998    -0.00220000
opls_142-135    C    0.34813995    0.85667996    0.55922002    0.01500000
opls_145-136    C    0.37219004    0.82423017    0.57600038    -0.12040000
opls_145-137    C    0.37066996    0.79739005    0.60861034    -0.11770000
opls_700-138    C    0.34282007    0.77225003    0.63755987    0.06710000
opls_145-139    C    0.31630007    0.77393004    0.62419970    -0.12080000
opls_145-140    C    0.31791995    0.80094002    0.59469012    -0.12060000
opls_700-141    C    0.34605002    0.82696002    0.57409966    0.06330000
opls_700-142    C    0.33654003    0.69586011    0.69463025    0.06760000
opls_700-143    C    0.34119995    0.74539997    0.69392999    0.02700000
opls_145-144    C    0.66107999    0.27949995    0.36146969    -0.16330000
opls_531-145    C    0.30168007    0.00000000    0.61380994    0.36770000
opls_145-146    C    0.21750002    0.00000000    0.59029003    0.20840000
opls_700-147    C    0.27261007    0.00000000    0.61226999    -0.00190000
opls_142-148    C    0.18056992    0.00000000    0.47993966    0.01320000
opls_700-149    C    0.10097002    1.00000000    0.36445980    0.06760000
opls_700-150    C    0.15197994    0.00000000    0.45197004    0.05730000
opls_700-151    C    0.07516998    0.00000000    0.30595973    0.02710000
opls_700-152    C    0.02774007    0.00000000    0.30537999    0.06760000
opls_145-153    C    0.94871994    0.00000000    0.86134996    -0.15370000
opls_523-154    C    0.02734992    0.27207996    0.60965010    -0.11770000
opls_145-155    C    0.02749990    0.24499996    0.59946988    -0.16760000
opls_145-156    C    0.02734004    0.15249006    0.43197035    -0.12020000
opls_145-157    C    0.02732999    0.12728002    0.38937000    -0.12020000
opls_531-158    C    0.02616004    0.35403007    0.61159021    0.36770000
opls_523-159    C    0.05556996    0.41094001    0.61529003    -0.12060000
opls_145-160    C    0.08254011    0.43840014    0.61041969    -0.17170000
opls_145-161    C    0.11035001    0.43899011    0.59692010    0.20750000
opls_145-162    C    0.11009004    0.41120992    0.59216003    -0.17250000
opls_523-163    C    0.08300009    0.38389005    0.59697996    -0.11950000
opls_700-164    C    0.05515009    0.38316005    0.60806998    -0.00220000
opls_142-165    C    0.14331989    0.49145993    0.55922002    0.01500000
opls_145-166    C    0.17577007    0.54796014    0.57600038    -0.12040000
opls_145-167    C    0.20260995    0.57327995    0.60861034    -0.11770000
opls_700-168    C    0.22775000    0.57056998    0.63755987    0.06710000
opls_145-169    C    0.22606997    0.54237013    0.62419970    -0.12080000
opls_145-170    C    0.19906000    0.51698008    0.59469012    -0.12060000
opls_700-171    C    0.17304003    0.51909014    0.57409966    0.06330000
opls_700-172    C    0.30414004    0.64068010    0.69463025    0.06760000
opls_700-173    C    0.25460001    0.59580012    0.69392999    0.02700000
opls_145-174    C    0.72050008    0.38158010    0.36146969    -0.16330000
opls_531-175    C    0.00000004    0.30167996    0.61380994    0.36770000
opls_145-176    C    0.00000013    0.21750007    0.59029003    0.20840000
opls_700-177    C    0.00000010    0.27261007    0.61226999    -0.00190000
opls_142-178    C    0.00000003    0.18056997    0.47993966    0.01320000
opls_700-179    C    0.00000010    0.10097001    0.36445980    0.06760000
opls_700-180    C    0.00000006    0.15198005    0.45197004    0.05730000
opls_700-181    C    0.00000001    0.07517001    0.30595973    0.02710000
opls_700-182    C    0.00000005    0.02773998    0.30537999    0.06760000
opls_145-183    C    0.00000005    0.94872005    0.86134996    -0.15370000
opls_523-184    C    0.24473003    0.27207996    0.39034990    -0.11770000
opls_145-185    C    0.21750006    0.24499996    0.40053012    -0.16760000
opls_145-186    C    0.12515002    0.15249006    0.56802965    -0.12020000
opls_145-187    C    0.09995003    0.12728002    0.61063000    -0.12020000
opls_531-188    C    0.32787004    0.35403007    0.38840979    0.36770000
opls_523-189    C    0.35537005    0.41094001    0.38470997    -0.12060000
opls_145-190    C    0.35586003    0.43840014    0.38958031    -0.17170000
opls_145-191    C    0.32864009    0.43899011    0.40307990    0.20750000
opls_145-192    C    0.30111988    0.41120992    0.40783997    -0.17250000
opls_523-193    C    0.30088996    0.38389005    0.40302004    -0.11950000
opls_700-194    C    0.32800995    0.38316005    0.39193002    -0.00220000
opls_142-195    C    0.34814004    0.49145993    0.44077998    0.01500000
opls_145-196    C    0.37219007    0.54796014    0.42399962    -0.12040000
opls_145-197    C    0.37067000    0.57327995    0.39138966    -0.11770000
opls_700-198    C    0.34281999    0.57056998    0.36244013    0.06710000
opls_145-199    C    0.31630016    0.54237013    0.37580030    -0.12070000
opls_145-200    C    0.31792008    0.51698008    0.40530988    -0.12060000
opls_700-201    C    0.34605011    0.51909014    0.42590034    0.06330000
opls_700-202    C    0.33654006    0.64068010    0.30536975    0.06380000
opls_700-203    C    0.34120011    0.59580012    0.30607001    0.02700000
opls_145-204    C    0.66108002    0.38158010    0.63853031    -0.16330000
opls_531-205    C    0.30167992    0.30167996    0.38619006    0.36770000
opls_145-206    C    0.21749995    0.21750007    0.40970997    0.20840000
opls_700-207    C    0.27260997    0.27261007    0.38773001    -0.00190000
opls_142-208    C    0.18056995    0.18056997    0.52006034    0.01320000
opls_700-209    C    0.10096992    0.10097001    0.63554020    0.06760000
opls_700-210    C    0.15197999    0.15198005    0.54802996    0.05730000
opls_700-211    C    0.07517000    0.07517001    0.69404027    0.02710000
opls_700-212    C    0.02773993    0.02773998    0.69462001    0.06760000
opls_145-213    C    0.94872000    0.94872005    0.13865004    -0.15370000
opls_701-214    C    0.66667006    0.33332995    0.64824028    -0.06980000
opls_701-215    C    0.00000000    0.00000000    0.14821980    -0.06980000
opls_523-216    C    0.02734998    0.75526995    0.39034990    -0.11770000
opls_145-217    C    0.02750005    0.78250015    0.40053012    -0.16760000
opls_145-218    C    0.02734014    0.87485014    0.56802965    -0.12020000
opls_145-219    C    0.02733004    0.90005001    0.61063000    -0.12020000
opls_531-220    C    0.02616001    0.67212996    0.38840979    0.36770000
opls_523-221    C    0.05557006    0.64463008    0.38470997    -0.12060000
opls_145-222    C    0.08254006    0.64413994    0.38958031    -0.17170000
opls_145-223    C    0.11035000    0.67135998    0.40307990    0.20750000
opls_145-224    C    0.11009003    0.69887997    0.40783997    -0.17250000
opls_523-225    C    0.08300002    0.69911013    0.40302004    -0.11950000
opls_700-226    C    0.05515013    0.67199015    0.39193002    -0.00220000
opls_142-227    C    0.14332014    0.65186011    0.44077998    0.01500000
opls_145-228    C    0.17577003    0.62781014    0.42399962    -0.12040000
opls_145-229    C    0.20260991    0.62933000    0.39138966    -0.11770000
opls_700-230    C    0.22775005    0.65717998    0.36244013    0.06710000
opls_145-231    C    0.22606998    0.68370005    0.37580030    -0.12070000
opls_145-232    C    0.19905997    0.68208013    0.40530988    -0.12060000
opls_700-233    C    0.17304000    0.65395007    0.42590034    0.06330000
opls_700-234    C    0.30413997    0.66346002    0.30536975    0.06760000
opls_700-235    C    0.25459998    0.65880013    0.30607001    0.02700000
opls_145-236    C    0.72050002    0.33891995    0.63853031    -0.16330000
opls_531-237    C    0.99999996    0.69832004    0.38619006    0.36770000
opls_145-238    C    0.99999999    0.78250015    0.40970997    0.20840000
opls_700-239    C    0.00000002    0.72739016    0.38773001    -0.00190000
opls_142-240    C    0.99999997    0.81943003    0.52006034    0.01320000
opls_700-241    C    0.99999990    0.89902999    0.63554020    0.06760000
opls_700-242    C    0.00000006    0.84802018    0.54802996    0.05730000
opls_700-243    C    0.99999999    0.92482999    0.69404027    0.02710000
opls_700-244    C    0.99999995    0.97226002    0.69462001    0.06760000
opls_145-245    C    0.99999995    0.05127995    0.13865004    -0.15370000
opls_523-246    C    0.72791999    0.97265009    0.39034990    -0.11770000
opls_145-247    C    0.75500001    0.97250012    0.40053012    -0.16760000
opls_145-248    C    0.84750996    0.97266003    0.56802965    -0.12020000
opls_145-249    C    0.87271992    0.97266997    0.61063000    -0.12020000
opls_531-250    C    0.64597007    0.97384019    0.38840979    0.36770000
opls_523-251    C    0.58906000    0.94443014    0.38470997    -0.12060000
opls_145-252    C    0.56160002    0.91746014    0.38958031    -0.17170000
opls_145-253    C    0.56101002    0.88965014    0.40307990    0.20750000
opls_145-254    C    0.58879010    0.88991011    0.40783997    -0.17250000
opls_523-255    C    0.61610994    0.91700005    0.40302004    -0.11950000
opls_700-256    C    0.61684003    0.94485003    0.39193002    -0.00220000
opls_142-257    C    0.50854001    0.85667996    0.44077998    0.01500000
opls_145-258    C    0.45204013    0.82423017    0.42399962    -0.12040000
opls_145-259    C    0.42672009    0.79739005    0.39138966    -0.11770000
opls_700-260    C    0.42942996    0.77225003    0.36244013    0.06710000
opls_145-261    C    0.45762997    0.77393004    0.37580030    -0.12070000
opls_145-262    C    0.48302006    0.80094002    0.40530988    -0.12060000
opls_700-263    C    0.48091000    0.82696002    0.42590034    0.06330000
opls_700-264    C    0.35932008    0.69586011    0.30536975    0.06760000
opls_700-265    C    0.40420002    0.74539997    0.30607001    0.02700000
opls_145-266    C    0.61841996    0.27949995    0.63853031    -0.16330000
opls_531-267    C    0.69831993    0.00000000    0.38619006    0.36770000
opls_145-268    C    0.78249998    0.00000000    0.40970997    0.20840000
opls_700-269    C    0.72738993    0.00000000    0.38773001    -0.00190000
opls_142-270    C    0.81943008    0.00000000    0.52006034    0.01320000
opls_700-271    C    0.89902998    0.00000000    0.63554020    0.06760000
opls_700-272    C    0.84802006    0.00000000    0.54802996    0.05730000
opls_700-273    C    0.92483002    0.00000000    0.69404027    0.02710000
opls_700-274    C    0.97225993    0.00000000    0.69462001    0.06760000
opls_145-275    C    0.05128006    0.00000000    0.13865004    -0.15370000
opls_523-276    C    0.75526997    0.72792004    0.89034990    -0.11770000
opls_145-277    C    0.78249994    0.75500004    0.90053012    -0.16760000
opls_145-278    C    0.87485009    0.84751017    0.06802965    -0.12020000
opls_145-279    C    0.90004997    0.87271998    0.11063000    -0.12020000
opls_531-280    C    0.67213008    0.64597015    0.88840979    0.36770000
opls_523-281    C    0.64462995    0.58905999    0.88470997    -0.12060000
opls_145-282    C    0.64414008    0.56160009    0.88958031    -0.17170000
opls_145-283    C    0.67136002    0.56101012    0.90307990    0.20750000
opls_145-284    C    0.69888012    0.58879008    0.90783997    -0.17250000
opls_523-285    C    0.69911004    0.61610995    0.90302004    -0.11950000
opls_700-286    C    0.67199005    0.61683995    0.89193002    -0.00220000
opls_142-287    C    0.65185996    0.50854007    0.94077998    0.01500000
opls_145-288    C    0.62781005    0.45204009    0.92399962    -0.12040000
opls_145-289    C    0.62933000    0.42672005    0.89138966    -0.11770000
opls_700-290    C    0.65718001    0.42943002    0.86244013    0.06710000
opls_145-291    C    0.68369995    0.45763009    0.87580030    -0.12070000
opls_145-292    C    0.68208003    0.48302014    0.90530988    -0.12060000
opls_700-293    C    0.65395000    0.48091009    0.92590034    0.06330000
opls_700-294    C    0.66346005    0.35932013    0.80536975    0.06380000
opls_700-295    C    0.65880000    0.40420011    0.80607001    0.02700000
opls_145-296    C    0.33892009    0.61842013    0.13853031    -0.16330000
opls_531-297    C    0.69832008    0.69832004    0.88619006    0.36770000
opls_145-298    C    0.78250016    0.78250015    0.90970997    0.20840000
opls_700-299    C    0.72739014    0.72739016    0.88773001    -0.00190000
opls_142-300    C    0.81943005    0.81943003    0.02006034    0.01320000
opls_700-301    C    0.89903008    0.89902999    0.13554020    0.06760000
opls_700-302    C    0.84802012    0.84802018    0.04802996    0.05730000
opls_700-303    C    0.92483000    0.92482999    0.19404027    0.02710000
opls_700-304    C    0.97226007    0.97226002    0.19462001    0.06760000
opls_145-305    C    0.05128000    0.05127995    0.63865004    -0.15370000
opls_701-306    C    0.33332994    0.66667005    0.14824028    -0.06980000
opls_701-307    C    0.00000000    0.00000000    0.64821980    -0.06980000
opls_523-308    C    0.97265002    0.24473005    0.89034990    -0.11770000
opls_145-309    C    0.97250007    0.21750007    0.90053012    -0.16760000
opls_145-310    C    0.97265998    0.12515009    0.06802965    -0.12020000
opls_145-311    C    0.97266996    0.09994999    0.11063000    -0.12020000
opls_531-312    C    0.97383999    0.32787004    0.88840979    0.36770000
opls_523-313    C    0.94442994    0.35536992    0.88470997    -0.12060000
opls_145-314    C    0.91745994    0.35586006    0.88958031    -0.17180000
opls_145-315    C    0.88965000    0.32864002    0.90307990    0.20750000
opls_145-316    C    0.88990997    0.30112003    0.90783997    -0.17250000
opls_523-317    C    0.91700009    0.30089010    0.90302004    -0.11950000
opls_700-318    C    0.94484998    0.32801008    0.89193002    -0.00220000
opls_142-319    C    0.85667997    0.34814011    0.94077998    0.01500000
opls_145-320    C    0.82423008    0.37219009    0.92399962    -0.12040000
opls_145-321    C    0.79739009    0.37067000    0.89138966    -0.11770000
opls_700-322    C    0.77224995    0.34282002    0.86244013    0.06710000
opls_145-323    C    0.77393002    0.31629995    0.87580030    -0.12070000
opls_145-324    C    0.80094014    0.31792010    0.90530988    -0.12060000
opls_700-325    C    0.82696000    0.34604993    0.92590034    0.06330000
opls_700-326    C    0.69586003    0.33653998    0.80536975    0.06760000
opls_700-327    C    0.74540013    0.34120009    0.80607001    0.02700000
opls_145-328    C    0.27949998    0.66108005    0.13853031    -0.16330000
opls_531-329    C    0.00000004    0.30167996    0.88619006    0.36770000
opls_145-330    C    0.00000013    0.21750007    0.90970997    0.20840000
opls_700-331    C    0.00000010    0.27261007    0.88773001    -0.00190000
opls_142-332    C    0.00000003    0.18056997    0.02006034    0.01320000
opls_700-333    C    0.00000010    0.10097001    0.13554020    0.06760000
opls_700-334    C    0.00000006    0.15198005    0.04802996    0.05730000
opls_700-335    C    0.00000001    0.07517001    0.19404027    0.02710000
opls_700-336    C    0.00000005    0.02773998    0.19462001    0.06760000
opls_145-337    C    0.00000005    0.94872005    0.63865004    -0.15370000
opls_523-338    C    0.27208001    0.02734991    0.89034990    -0.11770000
opls_145-339    C    0.24500010    0.02750011    0.90053012    -0.16760000
opls_145-340    C    0.15249004    0.02733997    0.06802965    -0.12020000
opls_145-341    C    0.12728008    0.02733003    0.11063000    -0.12020000
opls_531-342    C    0.35403004    0.02616004    0.88840979    0.36770000
opls_523-343    C    0.41094011    0.05557009    0.88470997    -0.12060000
opls_145-344    C    0.43840009    0.08254008    0.88958031    -0.17170000
opls_145-345    C    0.43899009    0.11035009    0.90307990    0.20750000
opls_145-346    C    0.41121002    0.11009011    0.90783997    -0.17250000
opls_523-347    C    0.38389006    0.08299995    0.90302004    -0.11950000
opls_700-348    C    0.38315997    0.05514997    0.89193002    -0.00220000
opls_142-349    C    0.49145999    0.14332004    0.94077998    0.01500000
opls_145-350    C    0.54795998    0.17577005    0.92399962    -0.12040000
opls_145-351    C    0.57327991    0.20260995    0.89138966    -0.11770000
opls_700-352    C    0.57057004    0.22774997    0.86244013    0.06710000
opls_145-353    C    0.54237003    0.22606996    0.87580030    -0.12070000
opls_145-354    C    0.51697994    0.19905998    0.90530988    -0.12060000
opls_700-355    C    0.51909000    0.17303998    0.92590034    0.06330000
opls_700-356    C    0.64068003    0.30414012    0.80536975    0.06760000
opls_700-357    C    0.59579998    0.25460003    0.80607001    0.02700000
opls_145-358    C    0.38158004    0.72050005    0.13853031    -0.16330000
opls_531-359    C    0.30168007    0.00000000    0.88619006    0.36770000
opls_145-360    C    0.21750002    0.00000000    0.90970997    0.20840000
opls_700-361    C    0.27261007    0.00000000    0.88773001    -0.00190000
opls_142-362    C    0.18056992    0.00000000    0.02006034    0.01320000
opls_700-363    C    0.10097002    0.00000000    0.13554020    0.06760000
opls_700-364    C    0.15197994    0.00000000    0.04802996    0.05730000
opls_700-365    C    0.07516998    0.00000000    0.19404027    0.02710000
opls_700-366    C    0.02774007    0.00000000    0.19462001    0.06760000
opls_145-367    C    0.94871994    0.00000000    0.63865004    -0.15370000
opls_523-368    C    0.72791998    0.75526995    0.89034990    -0.11770000
opls_145-369    C    0.75500011    0.78250015    0.90053012    -0.16760000
opls_145-370    C    0.84751000    0.87485014    0.06802965    -0.12020000
opls_145-371    C    0.87271997    0.90005001    0.11063000    -0.12020000
opls_531-372    C    0.64596996    0.67212996    0.88840979    0.36770000
opls_523-373    C    0.58906001    0.64463008    0.88470997    -0.12060000
opls_145-374    C    0.56159989    0.64413994    0.88958031    -0.17170000
opls_145-375    C    0.56100998    0.67135998    0.90307990    0.20750000
opls_145-376    C    0.58878994    0.69887997    0.90783997    -0.17250000
opls_523-377    C    0.61611010    0.69911013    0.90302004    -0.11950000
opls_700-378    C    0.61684002    0.67199015    0.89193002    -0.00220000
opls_142-379    C    0.50853997    0.65186011    0.94077998    0.01500000
opls_145-380    C    0.45204011    0.62781014    0.92399962    -0.12040000
opls_145-381    C    0.42672009    0.62933000    0.89138966    -0.11770000
opls_700-382    C    0.42942993    0.65717998    0.86244013    0.06710000
opls_145-383    C    0.45763007    0.68370005    0.87580030    -0.12070000
opls_145-384    C    0.48302016    0.68208013    0.90530988    -0.12060000
opls_700-385    C    0.48091007    0.65395007    0.92590034    0.06330000
opls_700-386    C    0.35932005    0.66346002    0.80536975    0.06380000
opls_700-387    C    0.40420016    0.65880013    0.80607001    0.02700000
opls_145-388    C    0.61841993    0.33891995    0.13853031    -0.16330000
opls_701-389    C    0.66667006    0.33332995    0.14824028    -0.06980000
opls_523-390    C    0.24473010    0.97265009    0.89034990    -0.11770000
opls_145-391    C    0.21750011    0.97250012    0.90053012    -0.16760000
opls_145-392    C    0.12515007    0.97266003    0.06802965    -0.12020000
opls_145-393    C    0.09995004    0.97266997    0.11063000    -0.12020000
opls_531-394    C    0.32787012    0.97384019    0.88840979    0.36770000
opls_523-395    C    0.35537014    0.94443014    0.88470997    -0.12060000
opls_145-396    C    0.35586012    0.91746014    0.88958031    -0.17170000
opls_145-397    C    0.32864012    0.88965014    0.90307990    0.20750000
opls_145-398    C    0.30112002    0.88991011    0.90783997    -0.17250000
opls_523-399    C    0.30089011    0.91700005    0.90302004    -0.11950000
opls_700-400    C    0.32801000    0.94485003    0.89193002    -0.00220000
opls_142-401    C    0.34813995    0.85667996    0.94077998    0.01500000
opls_145-402    C    0.37219004    0.82423017    0.92399962    -0.12040000
opls_145-403    C    0.37066996    0.79739005    0.89138966    -0.11770000
opls_700-404    C    0.34282007    0.77225003    0.86244013    0.06710000
opls_145-405    C    0.31630007    0.77393004    0.87580030    -0.12070000
opls_145-406    C    0.31791995    0.80094002    0.90530988    -0.12060000
opls_700-407    C    0.34605002    0.82696002    0.92590034    0.06330000
opls_700-408    C    0.33654003    0.69586011    0.80536975    0.06760000
opls_700-409    C    0.34119995    0.74539997    0.80607001    0.02700000
opls_145-410    C    0.66107999    0.27949995    0.13853031    -0.16330000
opls_523-411    C    0.02734992    0.27207996    0.89034990    -0.11770000
opls_145-412    C    0.02749990    0.24499996    0.90053012    -0.16760000
opls_145-413    C    0.02734004    0.15249006    0.06802965    -0.12020000
opls_145-414    C    0.02732999    0.12728002    0.11063000    -0.12020000
opls_531-415    C    0.02616004    0.35403007    0.88840979    0.36770000
opls_523-416    C    0.05556996    0.41094001    0.88470997    -0.12060000
opls_145-417    C    0.08254011    0.43840014    0.88958031    -0.17170000
opls_145-418    C    0.11035001    0.43899011    0.90307990    0.20750000
opls_145-419    C    0.11009004    0.41120992    0.90783997    -0.17250000
opls_523-420    C    0.08300009    0.38389005    0.90302004    -0.11950000
opls_700-421    C    0.05515009    0.38316005    0.89193002    -0.00220000
opls_142-422    C    0.14331989    0.49145993    0.94077998    0.01500000
opls_145-423    C    0.17577007    0.54796014    0.92399962    -0.12040000
opls_145-424    C    0.20260995    0.57327995    0.89138966    -0.11770000
opls_700-425    C    0.22775000    0.57056998    0.86244013    0.06710000
opls_145-426    C    0.22606997    0.54237013    0.87580030    -0.12080000
opls_145-427    C    0.19906000    0.51698008    0.90530988    -0.12060000
opls_700-428    C    0.17304003    0.51909014    0.92590034    0.06330000
opls_700-429    C    0.30414004    0.64068010    0.80536975    0.06760000
opls_700-430    C    0.25460001    0.59580012    0.80607001    0.02700000
opls_145-431    C    0.72050008    0.38158010    0.13853031    -0.16330000
opls_523-432    C    0.27208002    0.24473005    0.39034990    -0.11770000
opls_145-433    C    0.24500001    0.21750007    0.40053012    -0.16760000
opls_145-434    C    0.15249011    0.12515009    0.56802965    -0.12020000
opls_145-435    C    0.12728003    0.09994999    0.61063000    -0.12020000
opls_531-436    C    0.35403004    0.32787004    0.38840979    0.36770000
opls_523-437    C    0.41093999    0.35536992    0.38470997    -0.12060000
opls_145-438    C    0.43840011    0.35586006    0.38958031    -0.17170000
opls_145-439    C    0.43899002    0.32864002    0.40307990    0.20750000
opls_145-440    C    0.41121006    0.30112003    0.40783997    -0.17250000
opls_523-441    C    0.38389001    0.30089010    0.40302004    -0.11950000
opls_700-442    C    0.38316009    0.32801008    0.39193002    -0.00220000
opls_142-443    C    0.49146014    0.34814011    0.44077998    0.01500000
opls_145-444    C    0.54796000    0.37219009    0.42399962    -0.12040000
opls_145-445    C    0.57327991    0.37067000    0.39138966    -0.11770000
opls_700-446    C    0.57057007    0.34282002    0.36244013    0.06710000
opls_145-447    C    0.54236993    0.31629995    0.37580030    -0.12070000
opls_145-448    C    0.51697995    0.31792010    0.40530988    -0.12060000
opls_700-449    C    0.51908993    0.34604993    0.42590034    0.06330000
opls_700-450    C    0.64067995    0.33653998    0.30536975    0.06380000
opls_700-451    C    0.59579996    0.34120009    0.30607001    0.02700000
opls_145-452    C    0.38158007    0.66108005    0.63853031    -0.16330000
opls_701-453    C    0.33332994    0.66667005    0.64824028    -0.06980000
opls_523-454    C    0.75526990    0.02734991    0.39034990    -0.11770000
opls_145-455    C    0.78250001    0.02750011    0.40053012    -0.16770000
opls_145-456    C    0.87484993    0.02733997    0.56802965    -0.12020000
opls_145-457    C    0.90004996    0.02733003    0.61063000    -0.12020000
opls_531-458    C    0.67212999    0.02616004    0.38840979    0.36770000
opls_523-459    C    0.64462997    0.05557009    0.38470997    -0.12060000
opls_145-460    C    0.64413999    0.08254008    0.38958031    -0.17170000
opls_145-461    C    0.67135999    0.11035009    0.40307990    0.20750000
opls_145-462    C    0.69888010    0.11009011    0.40783997    -0.17250000
opls_523-463    C    0.69910989    0.08299995    0.40302004    -0.11950000
opls_700-464    C    0.67199000    0.05514997    0.39193002    -0.00220000
opls_142-465    C    0.65186005    0.14332004    0.44077998    0.01500000
opls_145-466    C    0.62781007    0.17577005    0.42399962    -0.12040000
opls_145-467    C    0.62933004    0.20260995    0.39138966    -0.11770000
opls_700-468    C    0.65717993    0.22774997    0.36244013    0.06710000
opls_145-469    C    0.68369993    0.22606996    0.37580030    -0.12070000
opls_145-470    C    0.68208005    0.19905998    0.40530988    -0.12060000
opls_700-471    C    0.65394998    0.17303998    0.42590034    0.06330000
opls_700-472    C    0.66346008    0.30414012    0.30536975    0.06760000
opls_700-473    C    0.65880005    0.25460003    0.30607001    0.02700000
opls_145-474    C    0.33892001    0.72050005    0.63853031    -0.16330000
opls_523-475    C    0.97265008    0.72792004    0.39034990    -0.11770000
opls_145-476    C    0.97250010    0.75500004    0.40053012    -0.16760000
opls_145-477    C    0.97266007    0.84751017    0.56802965    -0.12020000
opls_145-478    C    0.97267001    0.87271998    0.61063000    -0.12020000
opls_531-479    C    0.97384008    0.64597015    0.38840979    0.36770000
opls_523-480    C    0.94443004    0.58905999    0.38470997    -0.12060000
opls_145-481    C    0.91746001    0.56160009    0.38958031    -0.17170000
opls_145-482    C    0.88965010    0.56101012    0.40307990    0.20750000
opls_145-483    C    0.88990996    0.58879008    0.40783997    -0.17250000
opls_523-484    C    0.91699991    0.61610995    0.40302004    -0.11950000
opls_700-485    C    0.94484991    0.61683995    0.39193002    -0.00220000
opls_142-486    C    0.85668011    0.50854007    0.44077998    0.01500000
opls_145-487    C    0.82423004    0.45204009    0.42399962    -0.12040000
opls_145-488    C    0.79739005    0.42672005    0.39138966    -0.11780000
opls_700-489    C    0.77225000    0.42943002    0.36244013    0.06710000
opls_145-490    C    0.77393014    0.45763009    0.37580030    -0.12070000
opls_145-491    C    0.80094011    0.48302014    0.40530988    -0.12060000
opls_700-492    C    0.82696009    0.48091009    0.42590034    0.06330000
opls_700-493    C    0.69586008    0.35932013    0.30536975    0.06760000
opls_700-494    C    0.74540011    0.40420011    0.30607001    0.02700000
opls_145-495    C    0.27950003    0.61842013    0.63853031    -0.16330000
opls_523-496    C    0.75526997    0.72792004    0.60965010    -0.11770000
opls_145-497    C    0.78249994    0.75500004    0.59946988    -0.16760000
opls_145-498    C    0.87485009    0.84751017    0.43197035    -0.12020000
opls_145-499    C    0.90004997    0.87271998    0.38937000    -0.12020000
opls_531-500    C    0.67213008    0.64597015    0.61159021    0.36760000
opls_523-501    C    0.64462995    0.58905999    0.61529003    -0.12060000
opls_145-502    C    0.64414008    0.56160009    0.61041969    -0.17170000
opls_145-503    C    0.67136002    0.56101012    0.59692010    0.20750000
opls_145-504    C    0.69888012    0.58879008    0.59216003    -0.17250000
opls_523-505    C    0.69911004    0.61610995    0.59697996    -0.11950000
opls_700-506    C    0.67199005    0.61683995    0.60806998    -0.00220000
opls_142-507    C    0.65185996    0.50854007    0.55922002    0.01500000
opls_145-508    C    0.62781005    0.45204009    0.57600038    -0.12040000
opls_145-509    C    0.62933000    0.42672005    0.60861034    -0.11770000
opls_700-510    C    0.65718001    0.42943002    0.63755987    0.06710000
opls_145-511    C    0.68369995    0.45763009    0.62419970    -0.12070000
opls_145-512    C    0.68208003    0.48302014    0.59469012    -0.12060000
opls_700-513    C    0.65395000    0.48091009    0.57409966    0.06330000
opls_700-514    C    0.66346005    0.35932013    0.69463025    0.06380000
opls_700-515    C    0.65880000    0.40420011    0.69392999    0.02700000
opls_145-516    C    0.33892009    0.61842013    0.36146969    -0.16340000
opls_701-517    C    0.33332994    0.66667005    0.35175972    -0.06990000
opls_523-518    C    0.97265002    0.24473005    0.60965010    -0.11770000
opls_145-519    C    0.97250007    0.21750007    0.59946988    -0.16760000
opls_145-520    C    0.97265998    0.12515009    0.43197035    -0.12020000
opls_145-521    C    0.97266996    0.09994999    0.38937000    -0.12020000
opls_531-522    C    0.97383999    0.32787004    0.61159021    0.36770000
opls_523-523    C    0.94442994    0.35536992    0.61529003    -0.12060000
opls_145-524    C    0.91745994    0.35586006    0.61041969    -0.17170000
opls_145-525    C    0.88965000    0.32864002    0.59692010    0.20750000
opls_145-526    C    0.88990997    0.30112003    0.59216003    -0.17250000
opls_523-527    C    0.91700009    0.30089010    0.59697996    -0.11950000
opls_700-528    C    0.94484998    0.32801008    0.60806998    -0.00220000
opls_142-529    C    0.85667997    0.34814011    0.55922002    0.01500000
opls_145-530    C    0.82423008    0.37219009    0.57600038    -0.12040000
opls_145-531    C    0.79739009    0.37067000    0.60861034    -0.11770000
opls_700-532    C    0.77224995    0.34282002    0.63755987    0.06710000
opls_145-533    C    0.77393002    0.31629995    0.62419970    -0.12070000
opls_145-534    C    0.80094014    0.31792010    0.59469012    -0.12060000
opls_700-535    C    0.82696000    0.34604993    0.57409966    0.06330000
opls_700-536    C    0.69586003    0.33653998    0.69463025    0.06760000
opls_700-537    C    0.74540013    0.34120009    0.69392999    0.02700000
opls_145-538    C    0.27949998    0.66108005    0.36146969    -0.16340000
opls_523-539    C    0.27208001    0.02734991    0.60965010    -0.11770000
opls_145-540    C    0.24500010    0.02750011    0.59946988    -0.16760000
opls_145-541    C    0.15249004    0.02733997    0.43197035    -0.12020000
opls_145-542    C    0.12728008    0.02733003    0.38937000    -0.12020000
opls_531-543    C    0.35403004    0.02616004    0.61159021    0.36760000
opls_523-544    C    0.41094011    0.05557009    0.61529003    -0.12060000
opls_145-545    C    0.43840009    0.08254008    0.61041969    -0.17170000
opls_145-546    C    0.43899009    0.11035009    0.59692010    0.20750000
opls_145-547    C    0.41121002    0.11009011    0.59216003    -0.17250000
opls_523-548    C    0.38389006    0.08299995    0.59697996    -0.11950000
opls_700-549    C    0.38315997    0.05514997    0.60806998    -0.00220000
opls_142-550    C    0.49145999    0.14332004    0.55922002    0.01500000
opls_145-551    C    0.54795998    0.17577005    0.57600038    -0.12040000
opls_145-552    C    0.57327991    0.20260995    0.60861034    -0.11770000
opls_700-553    C    0.57057004    0.22774997    0.63755987    0.06710000
opls_145-554    C    0.54237003    0.22606996    0.62419970    -0.12070000
opls_145-555    C    0.51697994    0.19905998    0.59469012    -0.12060000
opls_700-556    C    0.51909000    0.17303998    0.57409966    0.06330000
opls_700-557    C    0.64068003    0.30414012    0.69463025    0.06760000
opls_700-558    C    0.59579998    0.25460003    0.69392999    0.02700000
opls_145-559    C    0.38158004    0.72050005    0.36146969    -0.16330000
opls_523-560    C    0.24473003    0.27207996    0.10965010    -0.11770000
opls_145-561    C    0.21750006    0.24499996    0.09946988    -0.16760000
opls_145-562    C    0.12515002    0.15249006    0.93197035    -0.12020000
opls_145-563    C    0.09995003    0.12728002    0.88937000    -0.12020000
opls_531-564    C    0.32787004    0.35403007    0.11159021    0.36770000
opls_523-565    C    0.35537005    0.41094001    0.11529003    -0.12060000
opls_145-566    C    0.35586003    0.43840014    0.11041969    -0.17170000
opls_145-567    C    0.32864009    0.43899011    0.09692010    0.20750000
opls_145-568    C    0.30111988    0.41120992    0.09216003    -0.17250000
opls_523-569    C    0.30088996    0.38389005    0.09697996    -0.11950000
opls_700-570    C    0.32800995    0.38316005    0.10806998    -0.00220000
opls_142-571    C    0.34814004    0.49145993    0.05922002    0.01500000
opls_145-572    C    0.37219007    0.54796014    0.07600038    -0.12040000
opls_145-573    C    0.37067000    0.57327995    0.10861034    -0.11770000
opls_700-574    C    0.34281999    0.57056998    0.13755987    0.06710000
opls_145-575    C    0.31630016    0.54237013    0.12419970    -0.12070000
opls_145-576    C    0.31792008    0.51698008    0.09469012    -0.12060000
opls_700-577    C    0.34605011    0.51909014    0.07409966    0.06330000
opls_700-578    C    0.33654006    0.64068010    0.19463025    0.06380000
opls_700-579    C    0.34120011    0.59580012    0.19392999    0.02700000
opls_145-580    C    0.66108002    0.38158010    0.86146969    -0.16330000
opls_701-581    C    0.66667006    0.33332995    0.85175972    -0.06980000
opls_523-582    C    0.02734998    0.75526995    0.10965010    -0.11770000
opls_145-583    C    0.02750005    0.78250015    0.09946988    -0.16760000
opls_145-584    C    0.02734014    0.87485014    0.93197035    -0.12020000
opls_145-585    C    0.02733004    0.90005001    0.88937000    -0.12020000
opls_531-586    C    0.02616001    0.67212996    0.11159021    0.36770000
opls_523-587    C    0.05557006    0.64463008    0.11529003    -0.12060000
opls_145-588    C    0.08254006    0.64413994    0.11041969    -0.17170000
opls_145-589    C    0.11035000    0.67135998    0.09692010    0.20750000
opls_145-590    C    0.11009003    0.69887997    0.09216003    -0.17250000
opls_523-591    C    0.08300002    0.69911013    0.09697996    -0.11950000
opls_700-592    C    0.05515013    0.67199015    0.10806998    -0.00220000
opls_142-593    C    0.14332014    0.65186011    0.05922002    0.01500000
opls_145-594    C    0.17577003    0.62781014    0.07600038    -0.12040000
opls_145-595    C    0.20260991    0.62933000    0.10861034    -0.11770000
opls_700-596    C    0.22775005    0.65717998    0.13755987    0.06710000
opls_145-597    C    0.22606998    0.68370005    0.12419970    -0.12070000
opls_145-598    C    0.19905997    0.68208013    0.09469012    -0.12060000
opls_700-599    C    0.17304000    0.65395007    0.07409966    0.06330000
opls_700-600    C    0.30413997    0.66346002    0.19463025    0.06760000
opls_700-601    C    0.25459998    0.65880013    0.19392999    0.02700000
opls_145-602    C    0.72050002    0.33891995    0.86146969    -0.16330000
opls_523-603    C    0.72791999    0.97265009    0.10965010    -0.11770000
opls_145-604    C    0.75500001    0.97250012    0.09946988    -0.16760000
opls_145-605    C    0.84750996    0.97266003    0.93197035    -0.12020000
opls_145-606    C    0.87271992    0.97266997    0.88937000    -0.12020000
opls_531-607    C    0.64597007    0.97384019    0.11159021    0.36770000
opls_523-608    C    0.58906000    0.94443014    0.11529003    -0.12060000
opls_145-609    C    0.56160002    0.91746014    0.11041969    -0.17170000
opls_145-610    C    0.56101002    0.88965014    0.09692010    0.20740000
opls_145-611    C    0.58879010    0.88991011    0.09216003    -0.17250000
opls_523-612    C    0.61610994    0.91700005    0.09697996    -0.11950000
opls_700-613    C    0.61684003    0.94485003    0.10806998    -0.00220000
opls_142-614    C    0.50854001    0.85667996    0.05922002    0.01500000
opls_145-615    C    0.45204013    0.82423017    0.07600038    -0.12040000
opls_145-616    C    0.42672009    0.79739005    0.10861034    -0.11770000
opls_700-617    C    0.42942996    0.77225003    0.13755987    0.06710000
opls_145-618    C    0.45762997    0.77393004    0.12419970    -0.12070000
opls_145-619    C    0.48302006    0.80094002    0.09469012    -0.12060000
opls_700-620    C    0.48091000    0.82696002    0.07409966    0.06330000
opls_700-621    C    0.35932008    0.69586011    0.19463025    0.06750000
opls_700-622    C    0.40420002    0.74539997    0.19392999    0.02700000
opls_145-623    C    0.61841996    0.27949995    0.86146969    -0.16330000
opls_750-624    N    0.46587008    0.32727013    0.09672002    -0.26230000
opls_520-625    N    0.67213004    0.69909002    0.88729992    -0.43520000
opls_750-626    N    0.18988004    0.18988003    0.07390982    -0.27490000
opls_520-627    N    0.64517995    0.64518007    0.88843027    -0.41070000
opls_750-628    N    0.67273002    0.13860008    0.09672002    -0.26230000
opls_520-629    N    0.30091014    0.97304017    0.88729992    -0.43530000
opls_750-630    N    0.81011995    0.00000000    0.07390982    -0.27490000
opls_520-631    N    0.35481996    0.00000000    0.88843027    -0.41080000
opls_750-632    N    0.86140002    0.53413002    0.09672002    -0.26230000
opls_520-633    N    0.02695993    0.32787004    0.88729992    -0.43520000
opls_750-634    N    0.00000001    0.81011997    0.07390982    -0.27490000
opls_520-635    N    0.99999989    0.35481993    0.88843027    -0.41070000
opls_750-636    N    0.53413004    0.67273009    0.59672002    -0.26230000
opls_520-637    N    0.32786996    0.30090998    0.38729992    -0.43520000
opls_750-638    N    0.81011996    0.81011997    0.57390982    -0.27490000
opls_520-639    N    0.35482005    0.35481993    0.38843027    -0.41090000
opls_750-640    N    0.32727010    0.86140015    0.59672002    -0.26230000
opls_520-641    N    0.69908997    0.02696006    0.38729992    -0.43520000
opls_750-642    N    0.18988005    0.00000000    0.57390982    -0.27490000
opls_520-643    N    0.64518004    0.00000000    0.38843027    -0.41070000
opls_750-644    N    0.13859998    0.46586998    0.59672002    -0.26230000
opls_520-645    N    0.97304007    0.67212996    0.38729992    -0.43520000
opls_750-646    N    0.99999999    0.18988003    0.57390982    -0.27490000
opls_520-647    N    0.00000011    0.64518007    0.38843027    -0.41070000
opls_750-648    N    0.32727001    0.46586998    0.40327998    -0.26230000
opls_520-649    N    0.69908989    0.67212996    0.61270008    -0.43520000
opls_750-650    N    0.18988004    0.18988003    0.42609018    -0.27490000
opls_520-651    N    0.64517995    0.64518007    0.61156973    -0.41070000
opls_750-652    N    0.13860006    0.67273009    0.40327998    -0.26230000
opls_520-653    N    0.97304002    0.30090998    0.61270008    -0.43530000
opls_750-654    N    0.00000001    0.81011997    0.42609018    -0.27490000
opls_520-655    N    0.99999989    0.35481993    0.61156973    -0.41070000
opls_750-656    N    0.53413005    0.86140015    0.40327998    -0.26230000
opls_520-657    N    0.32787009    0.02696006    0.61270008    -0.43530000
opls_750-658    N    0.81011995    0.00000000    0.42609018    -0.27490000
opls_520-659    N    0.35481996    0.00000000    0.61156973    -0.41090000
opls_750-660    N    0.67272999    0.53413002    0.90327998    -0.26230000
opls_520-661    N    0.30091011    0.32787004    0.11270008    -0.43520000
opls_750-662    N    0.81011996    0.81011997    0.92609018    -0.27490000
opls_520-663    N    0.35482005    0.35481993    0.11156973    -0.41070000
opls_750-664    N    0.86140006    0.32727013    0.90327998    -0.26230000
opls_520-665    N    0.02695998    0.69909002    0.11270008    -0.43520000
opls_750-666    N    0.99999999    0.18988003    0.92609018    -0.27490000
opls_520-667    N    0.00000011    0.64518007    0.11156973    -0.41070000
opls_750-668    N    0.46587006    0.13860008    0.90327998    -0.26240000
opls_520-669    N    0.67213003    0.97304017    0.11270008    -0.43520000
opls_750-670    N    0.18988005    0.00000000    0.92609018    -0.27500000
opls_520-671    N    0.64518004    0.00000000    0.11156973    -0.41070000
opls_750-672    N    0.53413004    0.67273009    0.90327998    -0.26230000
opls_520-673    N    0.32786996    0.30090998    0.11270008    -0.43520000
opls_750-674    N    0.32727010    0.86140015    0.90327998    -0.26230000
opls_520-675    N    0.69908997    0.02696006    0.11270008    -0.43520000
opls_750-676    N    0.13859998    0.46586998    0.90327998    -0.26230000
opls_520-677    N    0.97304007    0.67212996    0.11270008    -0.43520000
opls_750-678    N    0.46587008    0.32727013    0.40327998    -0.26230000
opls_520-679    N    0.67213004    0.69909002    0.61270008    -0.43520000
opls_750-680    N    0.67273002    0.13860008    0.40327998    -0.26230000
opls_520-681    N    0.30091014    0.97304017    0.61270008    -0.43520000
opls_750-682    N    0.86140002    0.53413002    0.40327998    -0.26230000
opls_520-683    N    0.02695993    0.32787004    0.61270008    -0.43520000
opls_750-684    N    0.67272999    0.53413002    0.59672002    -0.26230000
opls_520-685    N    0.30091011    0.32787004    0.38729992    -0.43530000
opls_750-686    N    0.86140006    0.32727013    0.59672002    -0.26230000
opls_520-687    N    0.02695998    0.69909002    0.38729992    -0.43520000
opls_750-688    N    0.46587006    0.13860008    0.59672002    -0.26230000
opls_520-689    N    0.67213003    0.97304017    0.38729992    -0.43520000
opls_750-690    N    0.32727001    0.46586998    0.09672002    -0.26230000
opls_520-691    N    0.69908989    0.67212996    0.88729992    -0.43530000
opls_750-692    N    0.13860006    0.67273009    0.09672002    -0.26230000
opls_520-693    N    0.97304002    0.30090998    0.88729992    -0.43520000
opls_750-694    N    0.53413005    0.86140015    0.09672002    -0.26230000
opls_520-695    N    0.32787009    0.02696006    0.88729992    -0.43520000
opls_526-696    H    0.29326006    0.24450011    0.11413999    0.11520000
opls_146-697    H    0.24508015    0.19626012    0.09531004    0.11560000
opls_146-698    H    0.17292004    0.12414995    0.94800003    0.11570000
opls_146-699    H    0.12838996    0.07963000    0.87226038    0.11520000
opls_526-700    H    0.41087988    0.37648994    0.12597990    0.11590000
opls_146-701    H    0.45936998    0.37730013    0.11941994    0.11510000
opls_146-702    H    0.41134997    0.28000002    0.08312039    0.11560000
opls_526-703    H    0.36272990    0.27945997    0.09267991    0.11570000
opls_144-704    H    0.49415004    0.36869004    0.01834000    0.04890000
opls_146-705    H    0.55041004    0.39416005    0.05755010    0.11650000
opls_146-706    H    0.59504003    0.39138006    0.11560038    0.11520000
opls_146-707    H    0.54008005    0.29443005    0.14267991    0.11440000
opls_146-708    H    0.49507993    0.29729993    0.09031996    0.11490000
opls_146-709    H    0.38173001    0.66134002    0.94738011    0.11520000
opls_146-710    H    0.05126995    0.05127001    0.94728007    0.11530000
opls_144-711    H    0.19378994    0.19379003    0.90969028    0.04860000
opls_702-712    H    0.33332994    0.66667005    0.93771977    0.11710000
opls_702-713    H    0.00000000    0.00000000    0.43774025    0.11710000
opls_526-714    H    0.75549994    0.04875994    0.11413999    0.11520000
opls_146-715    H    0.80373998    0.04882002    0.09531004    0.11560000
opls_146-716    H    0.87584996    0.04877010    0.94800003    0.11570000
opls_146-717    H    0.92037002    0.04875994    0.87226038    0.11520000
opls_526-718    H    0.62350999    0.03438999    0.12597990    0.11590000
opls_146-719    H    0.62269996    0.08207005    0.11941994    0.11510000
opls_146-720    H    0.72000005    0.13134994    0.08312039    0.11570000
opls_526-721    H    0.72053996    0.08327009    0.09267991    0.11570000
opls_144-722    H    0.63130996    0.12545998    0.01834000    0.04890000
opls_146-723    H    0.60584007    0.15625008    0.05755010    0.11650000
opls_146-724    H    0.60861993    0.20366001    0.11560038    0.11520000
opls_146-725    H    0.70557008    0.24565001    0.14267991    0.11440000
opls_146-726    H    0.70270004    0.19777999    0.09031996    0.11490000
opls_146-727    H    0.33866002    0.72039006    0.94738011    0.11520000
opls_146-728    H    0.94872992    0.00000000    0.94728007    0.11530000
opls_144-729    H    0.80620995    0.00000000    0.90969028    0.04860000
opls_526-730    H    0.95124000    0.70673995    0.11413999    0.11520000
opls_146-731    H    0.95117999    0.75492008    0.09531004    0.11560000
opls_146-732    H    0.95123012    0.82708018    0.94800003    0.11570000
opls_146-733    H    0.95124002    0.87161006    0.87226038    0.11520000
opls_526-734    H    0.96560994    0.58912007    0.12597990    0.11590000
opls_146-735    H    0.91792998    0.54063005    0.11941994    0.11510000
opls_146-736    H    0.86864998    0.58865004    0.08312039    0.11570000
opls_526-737    H    0.91672995    0.63726994    0.09267991    0.11570000
opls_144-738    H    0.87454000    0.50584998    0.01834000    0.04890000
opls_146-739    H    0.84375000    0.44959009    0.05755010    0.11650000
opls_146-740    H    0.79634004    0.40495993    0.11560038    0.11520000
opls_146-741    H    0.75435007    0.45991994    0.14267991    0.11440000
opls_146-742    H    0.80222003    0.50492008    0.09031996    0.11490000
opls_146-743    H    0.27961009    0.61827015    0.94738011    0.11520000
opls_146-744    H    0.99999994    0.94872999    0.94728007    0.11530000
opls_144-745    H    0.99999991    0.80620997    0.90969028    0.04860000
opls_526-746    H    0.70674006    0.75550011    0.61413999    0.11520000
opls_146-747    H    0.75491996    0.80374010    0.59531004    0.11560000
opls_146-748    H    0.82707996    0.87585005    0.44800003    0.11570000
opls_146-749    H    0.87161004    0.92037000    0.37226038    0.11520000
opls_526-750    H    0.58912012    0.62351006    0.62597990    0.11590000
opls_146-751    H    0.54063014    0.62270010    0.61941994    0.11510000
opls_146-752    H    0.58865003    0.71999998    0.58312039    0.11570000
opls_526-753    H    0.63727010    0.72054003    0.59267991    0.11570000
opls_144-754    H    0.50584996    0.63130996    0.51834000    0.04890000
opls_146-755    H    0.44958996    0.60583995    0.55755010    0.11650000
opls_146-756    H    0.40495997    0.60861994    0.61560038    0.11520000
opls_146-757    H    0.45991995    0.70556995    0.64267991    0.11440000
opls_146-758    H    0.50492007    0.70270007    0.59031996    0.11490000
opls_146-759    H    0.61826999    0.33865998    0.44738011    0.11520000
opls_146-760    H    0.94873005    0.94872999    0.44728007    0.11530000
opls_144-761    H    0.80621006    0.80620997    0.40969028    0.04860000
opls_702-762    H    0.66667006    0.33332995    0.43771977    0.11710000
opls_702-763    H    0.00000000    0.00000000    0.93774025    0.11710000
opls_526-764    H    0.24450006    0.95124006    0.61413999    0.11520000
opls_146-765    H    0.19626002    0.95117998    0.59531004    0.11560000
opls_146-766    H    0.12415016    0.95123012    0.44800003    0.11570000
opls_146-767    H    0.07962998    0.95124006    0.37226038    0.11520000
opls_526-768    H    0.37649001    0.96561001    0.62597990    0.11590000
opls_146-769    H    0.37730015    0.91793017    0.61941994    0.11510000
opls_146-770    H    0.27999995    0.86865006    0.58312039    0.11570000
opls_526-771    H    0.27946016    0.91673014    0.59267991    0.11570000
opls_144-772    H    0.36869004    0.87454002    0.51834000    0.04890000
opls_146-773    H    0.39416004    0.84375014    0.55755010    0.11650000
opls_146-774    H    0.39138007    0.79633999    0.61560038    0.11520000
opls_146-775    H    0.29442992    0.75434999    0.64267991    0.11440000
opls_146-776    H    0.29729996    0.80222001    0.59031996    0.11490000
opls_146-777    H    0.66133998    0.27960994    0.44738011    0.11520000
opls_146-778    H    0.05127008    0.00000000    0.44728007    0.11530000
opls_144-779    H    0.19379005    0.00000000    0.40969028    0.04860000
opls_526-780    H    0.04876000    0.29326005    0.61413999    0.11510000
opls_146-781    H    0.04882001    0.24507992    0.59531004    0.11560000
opls_146-782    H    0.04876999    0.17292005    0.44800003    0.11570000
opls_146-783    H    0.04875998    0.12838994    0.37226038    0.11520000
opls_526-784    H    0.03439006    0.41087993    0.62597990    0.11580000
opls_146-785    H    0.08207002    0.45936995    0.61941994    0.11510000
opls_146-786    H    0.13135002    0.41134996    0.58312039    0.11570000
opls_526-787    H    0.08327005    0.36273006    0.59267991    0.11560000
opls_144-788    H    0.12546000    0.49415002    0.51834000    0.04890000
opls_146-789    H    0.15625012    0.55041013    0.55755010    0.11650000
opls_146-790    H    0.20365996    0.59504007    0.61560038    0.11520000
opls_146-791    H    0.24564993    0.54008006    0.64267991    0.11440000
opls_146-792    H    0.19778008    0.49508014    0.59031996    0.11490000
opls_146-793    H    0.72039003    0.38173008    0.44738011    0.11520000
opls_146-794    H    0.00000006    0.05127001    0.44728007    0.11530000
opls_144-795    H    0.00000009    0.19379003    0.40969028    0.04860000
opls_526-796    H    0.24450006    0.29326005    0.38586001    0.11520000
opls_146-797    H    0.19625990    0.24507992    0.40468996    0.11560000
opls_146-798    H    0.12415006    0.17292005    0.55199997    0.11570000
opls_146-799    H    0.07962996    0.12838994    0.62773962    0.11520000
opls_526-800    H    0.37648987    0.41087993    0.37402010    0.11590000
opls_146-801    H    0.37729994    0.45936995    0.38058006    0.11510000
opls_146-802    H    0.27999994    0.41134996    0.41687961    0.11560000
opls_526-803    H    0.27946001    0.36273006    0.40732009    0.11570000
opls_144-804    H    0.36869002    0.49415002    0.48166000    0.04890000
opls_146-805    H    0.39416001    0.55041013    0.44244990    0.11650000
opls_146-806    H    0.39138011    0.59504007    0.38439962    0.11520000
opls_146-807    H    0.29443012    0.54008006    0.35732009    0.11440000
opls_146-808    H    0.29730006    0.49508014    0.40968004    0.11490000
opls_146-809    H    0.66134005    0.38173008    0.55261989    0.11520000
opls_146-810    H    0.05126995    0.05127001    0.55271993    0.11530000
opls_144-811    H    0.19378994    0.19379003    0.59030972    0.04860000
opls_702-812    H    0.66667006    0.33332995    0.56228023    0.11700000
opls_702-813    H    0.00000000    0.00000000    0.06225975    0.11710000
opls_526-814    H    0.04876006    0.75550011    0.38586001    0.11520000
opls_146-815    H    0.04882014    0.80374010    0.40468996    0.11560000
opls_146-816    H    0.04877009    0.87585005    0.55199997    0.11570000
opls_146-817    H    0.04875996    0.92037000    0.62773962    0.11520000
opls_526-818    H    0.03438994    0.62351006    0.37402010    0.11590000
opls_146-819    H    0.08206996    0.62270010    0.38058006    0.11510000
opls_146-820    H    0.13134996    0.71999998    0.41687961    0.11570000
opls_526-821    H    0.08326993    0.72054003    0.40732009    0.11570000
opls_144-822    H    0.12546000    0.63130996    0.48166000    0.04890000
opls_146-823    H    0.15625000    0.60583995    0.44244990    0.11650000
opls_146-824    H    0.20365997    0.60861994    0.38439962    0.11520000
opls_146-825    H    0.24565000    0.70556995    0.35732009    0.11440000
opls_146-826    H    0.19778000    0.70270007    0.40968004    0.11490000
opls_146-827    H    0.72038999    0.33865998    0.55261989    0.11520000
opls_146-828    H    0.99999994    0.94872999    0.55271993    0.11530000
opls_144-829    H    0.99999991    0.80620997    0.59030972    0.04860000
opls_526-830    H    0.70674000    0.95124006    0.38586001    0.11520000
opls_146-831    H    0.75491996    0.95117998    0.40468996    0.11560000
opls_146-832    H    0.82707997    0.95123012    0.55199997    0.11570000
opls_146-833    H    0.87161008    0.95124006    0.62773962    0.11520000
opls_526-834    H    0.58912000    0.96561001    0.37402010    0.11590000
opls_146-835    H    0.54063002    0.91793017    0.38058006    0.11510000
opls_146-836    H    0.58865011    0.86865006    0.41687961    0.11570000
opls_526-837    H    0.63726998    0.91673014    0.40732009    0.11570000
opls_144-838    H    0.50584998    0.87454002    0.48166000    0.04890000
opls_146-839    H    0.44959010    0.84375014    0.44244990    0.11650000
opls_146-840    H    0.40495992    0.79633999    0.38439962    0.11520000
opls_146-841    H    0.45992007    0.75434999    0.35732009    0.11440000
opls_146-842    H    0.50492005    0.80222001    0.40968004    0.11490000
opls_146-843    H    0.61826996    0.27960994    0.55261989    0.11520000
opls_146-844    H    0.94872992    0.00000000    0.55271993    0.11530000
opls_144-845    H    0.80620995    0.00000000    0.59030972    0.04860000
opls_526-846    H    0.75549994    0.70673995    0.88586001    0.11520000
opls_146-847    H    0.80374010    0.75492008    0.90468996    0.11560000
opls_146-848    H    0.87585006    0.82708018    0.05199997    0.11570000
opls_146-849    H    0.92037004    0.87161006    0.12773962    0.11520000
opls_526-850    H    0.62351013    0.58912007    0.87402010    0.11590000
opls_146-851    H    0.62270006    0.54063005    0.88058006    0.11510000
opls_146-852    H    0.72000006    0.58865004    0.91687961    0.11570000
opls_526-853    H    0.72053999    0.63726994    0.90732009    0.11570000
opls_144-854    H    0.63130998    0.50584998    0.98166000    0.04890000
opls_146-855    H    0.60584010    0.44959009    0.94244990    0.11640000
opls_146-856    H    0.60861989    0.40495993    0.88439962    0.11520000
opls_146-857    H    0.70556988    0.45991994    0.85732009    0.11440000
opls_146-858    H    0.70270005    0.50492008    0.90968004    0.11490000
opls_146-859    H    0.33866006    0.61827015    0.05261989    0.11520000
opls_146-860    H    0.94873005    0.94872999    0.05271993    0.11530000
opls_144-861    H    0.80621006    0.80620997    0.09030972    0.04860000
opls_702-862    H    0.33332994    0.66667005    0.06228023    0.11710000
opls_702-863    H    0.00000000    0.00000000    0.56225975    0.11710000
opls_526-864    H    0.95124006    0.24450011    0.88586001    0.11520000
opls_146-865    H    0.95117997    0.19626012    0.90468996    0.11560000
opls_146-866    H    0.95122991    0.12414995    0.05199997    0.11570000
opls_146-867    H    0.95124004    0.07963000    0.12773962    0.11520000
opls_526-868    H    0.96561006    0.37648994    0.87402010    0.11590000
opls_146-869    H    0.91793015    0.37730013    0.88058006    0.11510000
opls_146-870    H    0.86865004    0.28000002    0.91687961    0.11570000
opls_526-871    H    0.91673007    0.27945997    0.90732009    0.11570000
opls_144-872    H    0.87454000    0.36869004    0.98166000    0.04890000
opls_146-873    H    0.84375000    0.39416005    0.94244990    0.11650000
opls_146-874    H    0.79634003    0.39138006    0.88439962    0.11520000
opls_146-875    H    0.75435000    0.29443005    0.85732009    0.11440000
opls_146-876    H    0.80222000    0.29729993    0.90968004    0.11490000
opls_146-877    H    0.27961001    0.66134002    0.05261989    0.11520000
opls_146-878    H    0.00000006    0.05127001    0.05271993    0.11530000
opls_144-879    H    0.00000009    0.19379003    0.09030972    0.04860000
opls_526-880    H    0.29326000    0.04875994    0.88586001    0.11520000
opls_146-881    H    0.24508004    0.04882002    0.90468996    0.11560000
opls_146-882    H    0.17292015    0.04877010    0.05199997    0.11570000
opls_146-883    H    0.12838992    0.04875994    0.12773962    0.11520000
opls_526-884    H    0.41088000    0.03438999    0.87402010    0.11590000
opls_146-885    H    0.45937009    0.08207005    0.88058006    0.11510000
opls_146-886    H    0.41134989    0.13134994    0.91687961    0.11570000
opls_526-887    H    0.36273013    0.08327009    0.90732009    0.11570000
opls_144-888    H    0.49415002    0.12545998    0.98166000    0.04890000
opls_146-889    H    0.55041001    0.15625008    0.94244990    0.11650000
opls_146-890    H    0.59504008    0.20366001    0.88439962    0.11520000
opls_146-891    H    0.54007993    0.24565001    0.85732009    0.11440000
opls_146-892    H    0.49507995    0.19777999    0.90968004    0.11490000
opls_146-893    H    0.38173004    0.72039006    0.05261989    0.11520000
opls_146-894    H    0.05127008    0.00000000    0.05271993    0.11530000
opls_144-895    H    0.19379005    0.00000000    0.09030972    0.04860000
opls_526-896    H    0.70674006    0.75550011    0.88586001    0.11520000
opls_146-897    H    0.75491996    0.80374010    0.90468996    0.11560000
opls_146-898    H    0.82707996    0.87585005    0.05199997    0.11570000
opls_146-899    H    0.87161004    0.92037000    0.12773962    0.11520000
opls_526-900    H    0.58912012    0.62351006    0.87402010    0.11590000
opls_146-901    H    0.54063014    0.62270010    0.88058006    0.11510000
opls_146-902    H    0.58865003    0.71999998    0.91687961    0.11570000
opls_526-903    H    0.63727010    0.72054003    0.90732009    0.11560000
opls_144-904    H    0.50584996    0.63130996    0.98166000    0.04890000
opls_146-905    H    0.44958996    0.60583995    0.94244990    0.11650000
opls_146-906    H    0.40495997    0.60861994    0.88439962    0.11520000
opls_146-907    H    0.45991995    0.70556995    0.85732009    0.11440000
opls_146-908    H    0.50492007    0.70270007    0.90968004    0.11490000
opls_146-909    H    0.61826999    0.33865998    0.05261989    0.11520000
opls_702-910    H    0.66667006    0.33332995    0.06228023    0.11710000
opls_526-911    H    0.24450006    0.95124006    0.88586001    0.11520000
opls_146-912    H    0.19626002    0.95117998    0.90468996    0.11560000
opls_146-913    H    0.12415016    0.95123012    0.05199997    0.11570000
opls_146-914    H    0.07962998    0.95124006    0.12773962    0.11520000
opls_526-915    H    0.37649001    0.96561001    0.87402010    0.11590000
opls_146-916    H    0.37730015    0.91793017    0.88058006    0.11510000
opls_146-917    H    0.27999995    0.86865006    0.91687961    0.11570000
opls_526-918    H    0.27946016    0.91673014    0.90732009    0.11570000
opls_144-919    H    0.36869004    0.87454002    0.98166000    0.04890000
opls_146-920    H    0.39416004    0.84375014    0.94244990    0.11650000
opls_146-921    H    0.39138007    0.79633999    0.88439962    0.11520000
opls_146-922    H    0.29442992    0.75434999    0.85732009    0.11440000
opls_146-923    H    0.29729996    0.80222001    0.90968004    0.11490000
opls_146-924    H    0.66133998    0.27960994    0.05261989    0.11520000
opls_526-925    H    0.04876000    0.29326005    0.88586001    0.11520000
opls_146-926    H    0.04882001    0.24507992    0.90468996    0.11560000
opls_146-927    H    0.04876999    0.17292005    0.05199997    0.11570000
opls_146-928    H    0.04875998    0.12838994    0.12773962    0.11520000
opls_526-929    H    0.03439006    0.41087993    0.87402010    0.11590000
opls_146-930    H    0.08207002    0.45936995    0.88058006    0.11510000
opls_146-931    H    0.13135002    0.41134996    0.91687961    0.11560000
opls_526-932    H    0.08327005    0.36273006    0.90732009    0.11570000
opls_144-933    H    0.12546000    0.49415002    0.98166000    0.04890000
opls_146-934    H    0.15625012    0.55041013    0.94244990    0.11650000
opls_146-935    H    0.20365996    0.59504007    0.88439962    0.11520000
opls_146-936    H    0.24564993    0.54008006    0.85732009    0.11440000
opls_146-937    H    0.19778008    0.49508014    0.90968004    0.11490000
opls_146-938    H    0.72039003    0.38173008    0.05261989    0.11520000
opls_526-939    H    0.29326006    0.24450011    0.38586001    0.11520000
opls_146-940    H    0.24508015    0.19626012    0.40468996    0.11560000
opls_146-941    H    0.17292004    0.12414995    0.55199997    0.11570000
opls_146-942    H    0.12838996    0.07963000    0.62773962    0.11520000
opls_526-943    H    0.41087988    0.37648994    0.37402010    0.11590000
opls_146-944    H    0.45936998    0.37730013    0.38058006    0.11510000
opls_146-945    H    0.41134997    0.28000002    0.41687961    0.11570000
opls_526-946    H    0.36272990    0.27945997    0.40732009    0.11570000
opls_144-947    H    0.49415004    0.36869004    0.48166000    0.04890000
opls_146-948    H    0.55041004    0.39416005    0.44244990    0.11650000
opls_146-949    H    0.59504003    0.39138006    0.38439962    0.11520000
opls_146-950    H    0.54008005    0.29443005    0.35732009    0.11440000
opls_146-951    H    0.49507993    0.29729993    0.40968004    0.11490000
opls_146-952    H    0.38173001    0.66134002    0.55261989    0.11520000
opls_702-953    H    0.33332994    0.66667005    0.56228023    0.11710000
opls_526-954    H    0.75549994    0.04875994    0.38586001    0.11520000
opls_146-955    H    0.80373998    0.04882002    0.40468996    0.11560000
opls_146-956    H    0.87584996    0.04877010    0.55199997    0.11570000
opls_146-957    H    0.92037002    0.04875994    0.62773962    0.11520000
opls_526-958    H    0.62350999    0.03438999    0.37402010    0.11590000
opls_146-959    H    0.62269996    0.08207005    0.38058006    0.11510000
opls_146-960    H    0.72000005    0.13134994    0.41687961    0.11570000
opls_526-961    H    0.72053996    0.08327009    0.40732009    0.11570000
opls_144-962    H    0.63130996    0.12545998    0.48166000    0.04890000
opls_146-963    H    0.60584007    0.15625008    0.44244990    0.11650000
opls_146-964    H    0.60861993    0.20366001    0.38439962    0.11520000
opls_146-965    H    0.70557008    0.24565001    0.35732009    0.11440000
opls_146-966    H    0.70270004    0.19777999    0.40968004    0.11490000
opls_146-967    H    0.33866002    0.72039006    0.55261989    0.11520000
opls_526-968    H    0.95124000    0.70673995    0.38586001    0.11520000
opls_146-969    H    0.95117999    0.75492008    0.40468996    0.11560000
opls_146-970    H    0.95123012    0.82708018    0.55199997    0.11570000
opls_146-971    H    0.95124002    0.87161006    0.62773962    0.11520000
opls_526-972    H    0.96560994    0.58912007    0.37402010    0.11590000
opls_146-973    H    0.91792998    0.54063005    0.38058006    0.11510000
opls_146-974    H    0.86864998    0.58865004    0.41687961    0.11560000
opls_526-975    H    0.91672995    0.63726994    0.40732009    0.11570000
opls_144-976    H    0.87454000    0.50584998    0.48166000    0.04890000
opls_146-977    H    0.84375000    0.44959009    0.44244990    0.11650000
opls_146-978    H    0.79634004    0.40495993    0.38439962    0.11520000
opls_146-979    H    0.75435007    0.45991994    0.35732009    0.11440000
opls_146-980    H    0.80222003    0.50492008    0.40968004    0.11490000
opls_146-981    H    0.27961009    0.61827015    0.55261989    0.11520000
opls_526-982    H    0.75549994    0.70673995    0.61413999    0.11520000
opls_146-983    H    0.80374010    0.75492008    0.59531004    0.11560000
opls_146-984    H    0.87585006    0.82708018    0.44800003    0.11570000
opls_146-985    H    0.92037004    0.87161006    0.37226038    0.11520000
opls_526-986    H    0.62351013    0.58912007    0.62597990    0.11590000
opls_146-987    H    0.62270006    0.54063005    0.61941994    0.11510000
opls_146-988    H    0.72000006    0.58865004    0.58312039    0.11570000
opls_526-989    H    0.72053999    0.63726994    0.59267991    0.11570000
opls_144-990    H    0.63130998    0.50584998    0.51834000    0.04890000
opls_146-991    H    0.60584010    0.44959009    0.55755010    0.11650000
opls_146-992    H    0.60861989    0.40495993    0.61560038    0.11520000
opls_146-993    H    0.70556988    0.45991994    0.64267991    0.11440000
opls_146-994    H    0.70270005    0.50492008    0.59031996    0.11490000
opls_146-995    H    0.33866006    0.61827015    0.44738011    0.11520000
opls_702-996    H    0.33332994    0.66667005    0.43771977    0.11710000
opls_526-997    H    0.95124006    0.24450011    0.61413999    0.11510000
opls_146-998    H    0.95117997    0.19626012    0.59531004    0.11550000
opls_146-999    H    0.95122991    0.12414995    0.44800003    0.11570000
opls_146-1000    H    0.95124004    0.07963000    0.37226038    0.11520000
opls_526-1001    H    0.96561006    0.37648994    0.62597990    0.11590000
opls_146-1002    H    0.91793015    0.37730013    0.61941994    0.11510000
opls_146-1003    H    0.86865004    0.28000002    0.58312039    0.11570000
opls_526-1004    H    0.91673007    0.27945997    0.59267991    0.11570000
opls_144-1005    H    0.87454000    0.36869004    0.51834000    0.04890000
opls_146-1006    H    0.84375000    0.39416005    0.55755010    0.11650000
opls_146-1007    H    0.79634003    0.39138006    0.61560038    0.11520000
opls_146-1008    H    0.75435000    0.29443005    0.64267991    0.11440000
opls_146-1009    H    0.80222000    0.29729993    0.59031996    0.11490000
opls_146-1010    H    0.27961001    0.66134002    0.44738011    0.11520000
opls_526-1011    H    0.29326000    0.04875994    0.61413999    0.11520000
opls_146-1012    H    0.24508004    0.04882002    0.59531004    0.11560000
opls_146-1013    H    0.17292015    0.04877010    0.44800003    0.11570000
opls_146-1014    H    0.12838992    0.04875994    0.37226038    0.11520000
opls_526-1015    H    0.41088000    0.03438999    0.62597990    0.11590000
opls_146-1016    H    0.45937009    0.08207005    0.61941994    0.11510000
opls_146-1017    H    0.41134989    0.13134994    0.58312039    0.11570000
opls_526-1018    H    0.36273013    0.08327009    0.59267991    0.11570000
opls_144-1019    H    0.49415002    0.12545998    0.51834000    0.04890000
opls_146-1020    H    0.55041001    0.15625008    0.55755010    0.11650000
opls_146-1021    H    0.59504008    0.20366001    0.61560038    0.11520000
opls_146-1022    H    0.54007993    0.24565001    0.64267991    0.11430000
opls_146-1023    H    0.49507995    0.19777999    0.59031996    0.11490000
opls_146-1024    H    0.38173004    0.72039006    0.44738011    0.11520000
opls_526-1025    H    0.24450006    0.29326005    0.11413999    0.11520000
opls_146-1026    H    0.19625990    0.24507992    0.09531004    0.11560000
opls_146-1027    H    0.12415006    0.17292005    0.94800003    0.11570000
opls_146-1028    H    0.07962996    0.12838994    0.87226038    0.11520000
opls_526-1029    H    0.37648987    0.41087993    0.12597990    0.11590000
opls_146-1030    H    0.37729994    0.45936995    0.11941994    0.11510000
opls_146-1031    H    0.27999994    0.41134996    0.08312039    0.11570000
opls_526-1032    H    0.27946001    0.36273006    0.09267991    0.11570000
opls_144-1033    H    0.36869002    0.49415002    0.01834000    0.04890000
opls_146-1034    H    0.39416001    0.55041013    0.05755010    0.11650000
opls_146-1035    H    0.39138011    0.59504007    0.11560038    0.11520000
opls_146-1036    H    0.29443012    0.54008006    0.14267991    0.11440000
opls_146-1037    H    0.29730006    0.49508014    0.09031996    0.11490000
opls_146-1038    H    0.66134005    0.38173008    0.94738011    0.11520000
opls_702-1039    H    0.66667006    0.33332995    0.93771977    0.11710000
opls_526-1040    H    0.04876006    0.75550011    0.11413999    0.11510000
opls_146-1041    H    0.04882014    0.80374010    0.09531004    0.11560000
opls_146-1042    H    0.04877009    0.87585005    0.94800003    0.11570000
opls_146-1043    H    0.04875996    0.92037000    0.87226038    0.11520000
opls_526-1044    H    0.03438994    0.62351006    0.12597990    0.11590000
opls_146-1045    H    0.08206996    0.62270010    0.11941994    0.11510000
opls_146-1046    H    0.13134996    0.71999998    0.08312039    0.11570000
opls_526-1047    H    0.08326993    0.72054003    0.09267991    0.11570000
opls_144-1048    H    0.12546000    0.63130996    0.01834000    0.04890000
opls_146-1049    H    0.15625000    0.60583995    0.05755010    0.11650000
opls_146-1050    H    0.20365997    0.60861994    0.11560038    0.11520000
opls_146-1051    H    0.24565000    0.70556995    0.14267991    0.11440000
opls_146-1052    H    0.19778000    0.70270007    0.09031996    0.11490000
opls_146-1053    H    0.72038999    0.33865998    0.94738011    0.11520000
opls_526-1054    H    0.70674000    0.95124006    0.11413999    0.11520000
opls_146-1055    H    0.75491996    0.95117998    0.09531004    0.11560000
opls_146-1056    H    0.82707997    0.95123012    0.94800003    0.11570000
opls_146-1057    H    0.87161008    0.95124006    0.87226038    0.11520000
opls_526-1058    H    0.58912000    0.96561001    0.12597990    0.11590000
opls_146-1059    H    0.54063002    0.91793017    0.11941994    0.11510000
opls_146-1060    H    0.58865011    0.86865006    0.08312039    0.11570000
opls_526-1061    H    0.63726998    0.91673014    0.09267991    0.11570000
opls_144-1062    H    0.50584998    0.87454002    0.01834000    0.04890000
opls_146-1063    H    0.44959010    0.84375014    0.05755010    0.11650000
opls_146-1064    H    0.40495992    0.79633999    0.11560038    0.11520000
opls_146-1065    H    0.45992007    0.75434999    0.14267991    0.11440000
opls_146-1066    H    0.50492005    0.80222001    0.09031996    0.11490000
opls_146-1067    H    0.61826996    0.27960994    0.94738011    0.11520000
