#======================================================================
# Crystal Data Generated By AuToFF
#----------------------------------------------------------------------

data_AuToFF_phase_1

_cell_length_a                         51.1000
_cell_length_b                         40.8000
_cell_length_c                         17.2000
_cell_angle_alpha                      137.60
_cell_angle_beta                       91.10
_cell_angle_gamma                      89.00
_symmetry_space_group_name_H-M_alt     'P 1'
_symmetry_space_group_IT_number        1

loop_
_space_group_symop_operation_xyz
   'x, y, z'

loop_
   _atom_site_label
   _atom_site_type_symbol
   _atom_site_fract_x
   _atom_site_fract_y
   _atom_site_fract_z
   _atom_site_charge
opls_700-0    C    0.59895005    0.41527009    0.41555026    0.08770000
opls_700-1    C    0.59984006    0.46389990    0.47393013    0.03160000
opls_700-2    C    0.58194993    0.47944001    0.44216033    -0.07590000
opls_166-3    C    0.56312994    0.44685998    0.35503027    0.20480000
opls_145-4    C    0.56336001    0.39829001    0.29486035    -0.21440000
opls_145-5    C    0.58095001    0.38276018    0.32542041    -0.12330000
opls_145-6    C    0.61606995    0.39965998    0.44795986    -0.18550000
opls_700-7    C    0.63440010    0.43164995    0.53748009    0.05990000
opls_145-8    C    0.63564999    0.47939011    0.59294037    -0.12210000
opls_145-9    C    0.61848998    0.49557001    0.56267003    -0.12200000
opls_700-10    C    0.58151008    0.53039009    0.50286053    -0.07280000
opls_700-11    C    0.59948005    0.54683019    0.47573052    0.03170000
opls_700-12    C    0.59704000    0.59465006    0.52971031    0.08770000
opls_145-13    C    0.57701993    0.62512006    0.60909042    -0.12650000
opls_145-14    C    0.55972010    0.60906009    0.63699042    -0.22050000
opls_166-15    C    0.56224008    0.56217994    0.58695976    0.21580000
opls_145-16    C    0.61428008    0.61108991    0.50168010    -0.17880000
opls_700-17    C    0.63416998    0.58062996    0.42050047    0.06330000
opls_145-18    C    0.63695004    0.53378987    0.37001023    -0.12360000
opls_145-19    C    0.61972001    0.51682999    0.39590032    -0.13370000
opls_700-20    C    0.39066010    0.57945985    0.39739978    0.08770000
opls_700-21    C    0.39601009    0.55687988    0.43063973    0.02000000
opls_700-22    C    0.41532000    0.51962996    0.37044050    -0.09900000
opls_166-23    C    0.42902001    0.50620996    0.27941994    0.20040000
opls_145-24    C    0.42358996    0.52940991    0.24939017    -0.20410000
opls_145-25    C    0.40435006    0.56517978    0.30641975    -0.12920000
opls_145-26    C    0.37215010    0.61704992    0.45744036    -0.18240000
opls_700-27    C    0.35874993    0.63302980    0.55113994    0.06910000
opls_145-28    C    0.36381010    0.61054987    0.58369009    -0.12650000
opls_145-29    C    0.38236003    0.57316993    0.52486012    -0.13570000
opls_700-30    C    0.42285010    0.49627992    0.40494021    -0.09140000
opls_700-31    C    0.40664009    0.46138998    0.37993997    0.02030000
opls_700-32    C    0.41616993    0.43615987    0.40250002    0.08710000
opls_145-33    C    0.44164994    0.44460988    0.44543000    -0.12560000
opls_145-34    C    0.45728009    0.47923999    0.47113988    -0.21140000
opls_166-35    C    0.44782998    0.50616009    0.45478030    0.19920000
opls_145-36    C    0.40027997    0.40223007    0.38037024    -0.18430000
opls_700-37    C    0.37483993    0.39255015    0.33531049    0.06490000
opls_145-38    C    0.36574995    0.41651982    0.30977996    -0.12960000
opls_145-39    C    0.38144006    0.45019998    0.33096989    -0.13330000
opls_182-40    C    0.50687005    0.58157990    0.73537033    -0.02300000
opls_182-41    C    0.53666002    0.57740991    0.72958028    -0.02050000
opls_182-42    C    0.50684994    0.42378990    0.20144014    -0.02190000
opls_182-43    C    0.51806993    0.45164015    0.31968038    -0.01140000
opls_700-44    C    0.65254012    0.41463994    0.57062002    0.06300000
opls_700-45    C    0.65127000    0.59685997    0.38487983    0.06790000
opls_700-46    C    0.33979001    0.67372992    0.61519001    0.06020000
opls_700-47    C    0.35758994    0.35839984    0.31752991    0.06610000
opls_145-48    C    0.31460995    0.67008997    0.63959012    -0.13480000
opls_145-49    C    0.29605009    0.70686995    0.69038042    -0.13470000
opls_700-50    C    0.30254010    0.74814986    0.71919010    0.10730000
opls_145-51    C    0.32805002    0.75254990    0.69895986    -0.12330000
opls_145-52    C    0.34644010    0.71566995    0.64718055    -0.12030000
opls_145-53    C    0.34082007    0.32669004    0.22080036    -0.13470000
opls_145-54    C    0.32361998    0.29656007    0.20766045    -0.13330000
opls_700-55    C    0.32291010    0.29739993    0.29068014    0.10850000
opls_145-56    C    0.34004010    0.32807004    0.38578003    -0.12960000
opls_145-57    C    0.35719997    0.35829993    0.39918034    -0.13470000
opls_145-58    C    0.64351994    0.38384995    0.57550987    -0.12960000
opls_145-59    C    0.66078000    0.36562985    0.60051011    -0.12850000
opls_700-60    C    0.68738996    0.37782015    0.62107059    0.10120000
opls_145-61    C    0.69634006    0.40969999    0.61977031    -0.12100000
opls_145-62    C    0.67905008    0.42821998    0.59560043    -0.12220000
opls_145-63    C    0.67790998    0.58374994    0.36112987    -0.13420000
opls_145-64    C    0.69355008    0.59709988    0.32231974    -0.13460000
opls_700-65    C    0.68299001    0.62406988    0.30691986    0.11260000
opls_145-66    C    0.65650006    0.63769977    0.33183991    -0.12200000
opls_145-67    C    0.64075008    0.62382002    0.36922041    -0.13510000
opls_149-68    C    0.28188010    0.78486994    0.75925998    -0.24360000
opls_701-69    C    0.26869006    0.81162994    0.87405033    -0.05280000
opls_423-70    C    0.28800007    0.83739011    0.96849060    0.23550000
opls_700-71    C    0.24854996    0.84695991    0.90245044    0.08140000
opls_149-72    C    0.30325994    0.26717980    0.28055985    -0.24110000
opls_701-73    C    0.31583998    0.22150984    0.23779973    -0.04410000
opls_423-74    C    0.32292996    0.18601997    0.11546981    0.26160000
opls_700-75    C    0.29767001    0.19785006    0.25366006    0.08140000
opls_149-76    C    0.70042995    0.64063006    0.27098019    -0.24230000
opls_701-77    C    0.69145003    0.62414973    0.15995961    -0.04990000
opls_423-78    C    0.68916990    0.57092995    0.06219967    0.23970000
opls_700-79    C    0.71057991    0.64211975    0.13143965    0.07770000
opls_149-80    C    0.70628996    0.35579018    0.64119046    -0.24050000
opls_701-81    C    0.71710007    0.39339998    0.76561997    -0.04360000
opls_423-82    C    0.69572008    0.41604011    0.84849049    0.25480000
opls_700-83    C    0.73658002    0.36918981    0.77835980    0.06640000
opls_145-84    C    0.25654001    0.88705995    0.92845004    -0.12650000
opls_145-85    C    0.23842009    0.91318983    0.92901999    -0.12100000
opls_700-86    C    0.21187996    0.89989993    0.90369037    0.07020000
opls_145-87    C    0.20351997    0.86274984    0.88828014    -0.13540000
opls_145-88    C    0.22171010    0.83651990    0.88779038    -0.13460000
opls_145-89    C    0.70338001    0.67966007    0.14554011    -0.13330000
opls_145-90    C    0.72153998    0.69861009    0.12709043    -0.13470000
opls_700-91    C    0.74726993    0.68009974    0.09295977    0.07760000
opls_145-92    C    0.75422004    0.64167995    0.07588970    -0.13100000
opls_145-93    C    0.73617002    0.62306977    0.09536977    -0.13480000
opls_145-94    C    0.72854001    0.33340988    0.76848008    -0.13480000
opls_145-95    C    0.74700997    0.30606982    0.76284006    -0.13100000
opls_700-96    C    0.77387014    0.31378988    0.76654000    0.07260000
opls_145-97    C    0.78185009    0.35162985    0.78367992    -0.13330000
opls_145-98    C    0.76338000    0.37907997    0.78972002    -0.12180000
opls_145-99    C    0.30621999    0.18903984    0.31516992    -0.13170000
opls_145-100    C    0.28989001    0.16586015    0.32708026    -0.13510000
opls_700-101    C    0.26443009    0.15190988    0.27978985    0.07270000
opls_145-102    C    0.25577005    0.16137013    0.21985016    -0.12200000
opls_145-103    C    0.27227000    0.18355009    0.20571003    -0.12850000
opls_701-104    C    0.19347010    0.92036994    0.87741054    -0.03970000
opls_149-105    C    0.20190008    0.90096973    0.76325998    -0.24320000
opls_423-106    C    0.19342014    0.97389011    0.97331060    0.26160000
opls_701-107    C    0.24638994    0.12718005    0.29284009    -0.04430000
opls_149-108    C    0.24204995    0.15895002    0.42097040    -0.23940000
opls_423-109    C    0.25713999    0.07927997    0.23115002    0.26160000
opls_701-110    C    0.79365999    0.27824014    0.73858050    -0.04450000
opls_149-111    C    0.80600995    0.24900005    0.62087055    -0.23990000
opls_423-112    C    0.81372011    0.30402998    0.83023999    0.26160000
opls_701-113    C    0.76759988    0.70181997    0.07807983    -0.04990000
opls_149-114    C    0.77513003    0.75348969    0.19528967    -0.24230000
opls_423-115    C    0.75797000    0.70244986    0.99792024    0.26160000
opls_700-116    C    0.10317999    0.93400989    0.45793012    0.08770000
opls_700-117    C    0.10268006    0.98253984    0.51547016    0.01930000
opls_700-118    C    0.08706005    0.99453997    0.46993013    -0.08370000
opls_166-119    C    0.07133990    0.95867997    0.37128034    0.21010000
opls_145-120    C    0.07245991    0.91066970    0.31493970    -0.23400000
opls_145-121    C    0.08811992    0.89852984    0.35798005    -0.12150000
opls_145-122    C    0.11910994    0.92126008    0.49985040    -0.17590000
opls_700-123    C    0.13474006    0.95618977    0.59848985    0.06760000
opls_145-124    C    0.13412008    0.00428990    0.65609024    -0.12210000
opls_145-125    C    0.11813997    0.01749986    0.61587982    -0.13480000
opls_182-126    C    0.03020999    0.95167984    0.28825979    -0.01450000
opls_182-127    C    0.02767989    0.91666997    0.15864985    -0.02370000
opls_700-128    C    0.15179009    0.94231001    0.64096024    0.06850000
opls_145-129    C    0.17826011    0.95571991    0.66653992    -0.12030000
opls_145-130    C    0.19437005    0.94269978    0.70699005    -0.12850000
opls_700-131    C    0.18419011    0.91653004    0.72374022    0.11090000
opls_145-132    C    0.15780009    0.90260003    0.69679043    -0.13100000
opls_145-133    C    0.14171994    0.91545993    0.65587985    -0.12990000
opls_700-134    C    0.90154996    0.02219018    0.24674046    0.08780000
opls_700-135    C    0.90147007    0.99641987    0.27292975    0.02070000
opls_700-136    C    0.91830999    0.95557976    0.21156992    -0.09520000
opls_166-137    C    0.93550007    0.94215988    0.12828034    0.21430000
opls_145-138    C    0.93463992    0.96781984    0.10237991    -0.20660000
opls_145-139    C    0.91777007    0.00705989    0.16032003    -0.13580000
opls_145-140    C    0.88598010    0.06380988    0.30962993    -0.17360000
opls_700-141    C    0.87030012    0.08080992    0.39968993    0.07070000
opls_145-142    C    0.86993011    0.05513011    0.42509026    -0.12200000
opls_145-143    C    0.88540997    0.01357998    0.36298975    -0.13560000
opls_700-144    C    0.85441000    0.12542995    0.46651991    0.06320000
opls_145-145    C    0.82785010    0.12629011    0.48748048    -0.13280000
opls_145-146    C    0.81235010    0.16700007    0.54126022    -0.12870000
opls_700-147    C    0.82325007    0.20765005    0.57619019    0.10120000
opls_145-148    C    0.85001003    0.20749004    0.55923049    -0.12310000
opls_145-149    C    0.86544001    0.16670982    0.50469972    -0.12200000
opls_700-150    C    0.08763999    0.04409014    0.52186033    -0.08520000
opls_700-151    C    0.11000997    0.06044989    0.51063980    0.02890000
opls_700-152    C    0.11001005    0.10759013    0.56037039    0.08770000
opls_145-153    C    0.08833010    0.13808013    0.62253039    -0.13010000
opls_145-154    C    0.06652005    0.12225996    0.63477011    -0.21540000
opls_166-155    C    0.06565998    0.07491009    0.58342021    0.22290000
opls_145-156    C    0.13173004    0.12373997    0.54732015    -0.17540000
opls_700-157    C    0.15392003    0.09396988    0.48753998    0.06690000
opls_145-158    C    0.15423002    0.04815015    0.44258025    -0.13580000
opls_145-159    C    0.13246006    0.03106007    0.45138043    -0.12650000
opls_182-160    C    0.00085011    0.06090996    0.65576000    -0.02350000
opls_182-161    C    0.02366012    0.08921008    0.67073048    -0.02040000
opls_700-162    C    0.17651003    0.11019013    0.46991030    0.06290000
opls_145-163    C    0.20233004    0.10050012    0.47858028    -0.13530000
opls_145-164    C    0.22350996    0.11595010    0.46203015    -0.12420000
opls_700-165    C    0.21927998    0.14126003    0.43644013    0.09900000
opls_145-166    C    0.19356993    0.15034981    0.42601977    -0.12030000
opls_145-167    C    0.17238002    0.13486003    0.44233019    -0.12690000
opls_700-168    C    0.92088998    0.92972989    0.24219034    -0.08870000
opls_700-169    C    0.90103001    0.89884990    0.21650029    0.01720000
opls_700-170    C    0.90512007    0.87464992    0.24617999    0.08710000
opls_145-171    C    0.92925008    0.87849980    0.29244000    -0.12360000
opls_145-172    C    0.94879991    0.90818999    0.31557001    -0.21050000
opls_166-173    C    0.94429001    0.93568973    0.29677973    0.20060000
opls_145-174    C    0.88491998    0.84739000    0.23084047    -0.18720000
opls_700-175    C    0.86050001    0.84321002    0.18512023    0.06630000
opls_145-176    C    0.85704996    0.86491978    0.14959961    -0.13470000
opls_145-177    C    0.87706006    0.89210985    0.16433987    -0.13480000
opls_700-178    C    0.83840000    0.81813003    0.17955006    0.06660000
opls_145-179    C    0.81281003    0.83705998    0.20666023    -0.13100000
opls_145-180    C    0.79234993    0.81565994    0.20957035    -0.12870000
opls_700-181    C    0.79701007    0.77492991    0.18577037    0.11380000
opls_145-182    C    0.82241995    0.75538984    0.15667011    -0.13510000
opls_145-183    C    0.84286007    0.77656978    0.15297965    -0.13480000
opls_182-184    C    0.97735006    0.04955012    0.51890021    -0.01780000
opls_182-185    C    0.95487995    0.01918987    0.43309975    -0.01140000
opls_182-186    C    0.99656988    0.86847993    0.00826989    -0.01780000
opls_182-187    C    0.97610005    0.90020974    0.02254971    -0.01450000
opls_182-188    C    0.44295997    0.42358975    0.14065975    -0.01180000
opls_182-189    C    0.46761003    0.39267997    0.09643983    -0.01890000
opls_182-190    C    0.47060004    0.59946997    0.68916033    -0.02870000
opls_182-191    C    0.45930005    0.58959984    0.59047001    -0.02050000
opls_700-192    C    0.59895005    0.41526996    0.91554983    0.08770000
opls_700-193    C    0.59984006    0.46390004    0.97393057    0.03160000
opls_700-194    C    0.58195012    0.47943987    0.94215990    -0.07590000
opls_166-195    C    0.56313013    0.44685985    0.85502984    0.20480000
opls_145-196    C    0.56336001    0.39828987    0.79485992    -0.21440000
opls_145-197    C    0.58095001    0.38275980    0.82541998    -0.12330000
opls_145-198    C    0.61607015    0.39965986    0.94796029    -0.18550000
opls_700-199    C    0.63439991    0.43164981    0.03747966    0.05980000
opls_145-200    C    0.63564999    0.47938998    0.09293994    -0.12210000
opls_145-201    C    0.61848998    0.49556988    0.06266959    -0.12200000
opls_700-202    C    0.58151008    0.53038995    0.00286010    -0.07280000
opls_700-203    C    0.59948005    0.54682981    0.97573009    0.03170000
opls_700-204    C    0.59704000    0.59464992    0.02970988    0.08770000
opls_145-205    C    0.57701993    0.62511993    0.10908998    -0.12590000
opls_145-206    C    0.55971997    0.60905999    0.13700033    -0.22070000
opls_166-207    C    0.56223995    0.56217984    0.08696968    0.21580000
opls_145-208    C    0.61427988    0.61108977    0.00167967    -0.17880000
opls_700-209    C    0.63416998    0.58062983    0.92050004    0.06330000
opls_145-210    C    0.63695004    0.53379001    0.87001067    -0.12360000
opls_145-211    C    0.61972007    0.51682989    0.89591024    -0.13370000
opls_700-212    C    0.39066010    0.57945999    0.89740021    0.08770000
opls_700-213    C    0.39601009    0.55688002    0.93064016    0.02000000
opls_700-214    C    0.41531999    0.51962982    0.87044007    -0.09900000
opls_166-215    C    0.42902001    0.50621009    0.77942037    0.20040000
opls_145-216    C    0.42358996    0.52941004    0.74939060    -0.20410000
opls_145-217    C    0.40435006    0.56517992    0.80642018    -0.12920000
opls_145-218    C    0.37215010    0.61704978    0.95743993    -0.18240000
opls_700-219    C    0.35874993    0.63302993    0.05114038    0.06910000
opls_145-220    C    0.36380991    0.61054974    0.08368966    -0.12650000
opls_145-221    C    0.38236003    0.57316980    0.02485969    -0.13570000
opls_700-222    C    0.42285010    0.49628005    0.90494064    -0.09140000
opls_700-223    C    0.40664010    0.46139011    0.87994040    0.02030000
opls_700-224    C    0.41617013    0.43616001    0.90250045    0.08710000
opls_145-225    C    0.44165014    0.44461001    0.94543043    -0.12560000
opls_145-226    C    0.45728010    0.47923988    0.97114031    -0.21140000
opls_166-227    C    0.44782998    0.50615995    0.95477987    0.19920000
opls_145-228    C    0.40027997    0.40223021    0.88037067    -0.18430000
opls_700-229    C    0.37484012    0.39255002    0.83531005    0.06490000
opls_145-230    C    0.36575014    0.41651995    0.80978039    -0.12960000
opls_145-231    C    0.38144006    0.45020011    0.83097032    -0.13330000
opls_182-232    C    0.50687004    0.58158001    0.23536989    -0.02300000
opls_182-233    C    0.53666002    0.57740977    0.22957985    -0.02050000
opls_182-234    C    0.50685013    0.42379004    0.70144057    -0.02190000
opls_182-235    C    0.51807013    0.45163977    0.81967995    -0.01140000
opls_700-236    C    0.65253992    0.41463981    0.07061959    0.06290000
opls_700-237    C    0.65127001    0.59685986    0.88488026    0.06790000
opls_700-238    C    0.33979001    0.67373005    0.11519044    0.06020000
opls_700-239    C    0.35759014    0.35839997    0.81753034    0.06610000
opls_145-240    C    0.31460995    0.67008984    0.13958969    -0.13480000
opls_145-241    C    0.29604990    0.70686982    0.19037999    -0.13470000
opls_700-242    C    0.30253990    0.74814972    0.21918967    0.10730000
opls_145-243    C    0.32805002    0.75255004    0.19896029    -0.12310000
opls_145-244    C    0.34643990    0.71567006    0.14718012    -0.12030000
opls_145-245    C    0.34082007    0.32668990    0.72079993    -0.13480000
opls_145-246    C    0.32361998    0.29655994    0.70766002    -0.13330000
opls_700-247    C    0.32291010    0.29740006    0.79068057    0.10850000
opls_145-248    C    0.34004010    0.32806993    0.88578046    -0.12960000
opls_145-249    C    0.35719997    0.35829980    0.89917991    -0.13470000
opls_145-250    C    0.64351995    0.38385008    0.07551030    -0.12960000
opls_145-251    C    0.66078000    0.36562996    0.10050968    -0.12850000
opls_700-252    C    0.68738996    0.37782002    0.12107016    0.10120000
opls_145-253    C    0.69634006    0.40969986    0.11976988    -0.12100000
opls_145-254    C    0.67905008    0.42821985    0.09560000    -0.12220000
opls_145-255    C    0.67790998    0.58375008    0.86113030    -0.13420000
opls_145-256    C    0.69355008    0.59710002    0.82232017    -0.13470000
opls_700-257    C    0.68299002    0.62407001    0.80692029    0.11270000
opls_145-258    C    0.65650006    0.63769990    0.83184034    -0.12200000
opls_145-259    C    0.64075008    0.62381989    0.86921998    -0.13510000
opls_149-260    C    0.28187991    0.78487007    0.25926041    -0.24360000
opls_701-261    C    0.26869006    0.81162981    0.37404990    -0.05280000
opls_423-262    C    0.28800007    0.83738997    0.46849016    0.23550000
opls_700-263    C    0.24854996    0.84695978    0.40245001    0.08140000
opls_149-264    C    0.30326013    0.26717994    0.78056028    -0.24110000
opls_701-265    C    0.31583998    0.22150997    0.73780016    -0.04410000
opls_423-266    C    0.32292996    0.18602010    0.61547024    0.26160000
opls_700-267    C    0.29767001    0.19785020    0.75366049    0.08140000
opls_149-268    C    0.70042995    0.64063019    0.77098062    -0.24230000
opls_701-269    C    0.69145003    0.62414987    0.65996004    -0.04990000
opls_423-270    C    0.68917010    0.57092984    0.56220010    0.23980000
opls_700-271    C    0.71058011    0.64211988    0.63144008    0.07770000
opls_149-272    C    0.70628996    0.35579005    0.14119003    -0.24050000
opls_701-273    C    0.71710007    0.39340011    0.26562041    -0.04360000
opls_423-274    C    0.69572008    0.41603998    0.34849006    0.25470000
opls_700-275    C    0.73658002    0.36918994    0.27836023    0.06640000
opls_145-276    C    0.25654001    0.88706008    0.42845047    -0.12650000
opls_145-277    C    0.23842009    0.91318996    0.42902042    -0.12100000
opls_700-278    C    0.21187996    0.89989980    0.40368994    0.07020000
opls_145-279    C    0.20351997    0.86274971    0.38827971    -0.13540000
opls_145-280    C    0.22171010    0.83651976    0.38778994    -0.13460000
opls_145-281    C    0.70338002    0.67965996    0.64554054    -0.13330000
opls_145-282    C    0.72153998    0.69860996    0.62709000    -0.13470000
opls_700-283    C    0.74726993    0.68009987    0.59296020    0.07760000
opls_145-284    C    0.75422005    0.64167984    0.57589013    -0.13100000
opls_145-285    C    0.73617002    0.62306990    0.59537021    -0.13480000
opls_145-286    C    0.72854000    0.33340975    0.26847965    -0.13480000
opls_145-287    C    0.74700997    0.30607020    0.26284049    -0.13100000
opls_700-288    C    0.77386995    0.31379001    0.26654043    0.07260000
opls_145-289    C    0.78185009    0.35162998    0.28368035    -0.13330000
opls_145-290    C    0.76338000    0.37908011    0.28972045    -0.12180000
opls_145-291    C    0.30621999    0.18903998    0.81517035    -0.13200000
opls_145-292    C    0.28989008    0.16586005    0.82709017    -0.13510000
opls_700-293    C    0.26443009    0.15191001    0.77979028    0.07270000
opls_145-294    C    0.25577005    0.16137002    0.71985059    -0.12200000
opls_145-295    C    0.27227000    0.18354997    0.70571046    -0.12850000
opls_701-296    C    0.19346991    0.92036981    0.37741011    -0.03970000
opls_149-297    C    0.20190007    0.90097011    0.26326041    -0.24310000
opls_423-298    C    0.19341994    0.97388998    0.47331017    0.26160000
opls_701-299    C    0.24639014    0.12718019    0.79284052    -0.04430000
opls_149-300    C    0.24205015    0.15894989    0.92096997    -0.23940000
opls_423-301    C    0.25713999    0.07928010    0.73115045    0.26160000
opls_701-302    C    0.79365999    0.27824000    0.23858007    -0.04420000
opls_149-303    C    0.80600995    0.24899992    0.12087012    -0.23990000
opls_423-304    C    0.81371998    0.30402988    0.33024991    0.26180000
opls_701-305    C    0.76760008    0.70181986    0.57808026    -0.04990000
opls_149-306    C    0.77513004    0.75348982    0.69529010    -0.24230000
opls_423-307    C    0.75797000    0.70244972    0.49791981    0.26160000
opls_700-308    C    0.10317999    0.93401003    0.95793055    0.08770000
opls_700-309    C    0.10268006    0.98253971    0.01546973    0.01930000
opls_700-310    C    0.08706006    0.99454011    0.96993056    -0.08370000
opls_166-311    C    0.07134010    0.95867983    0.87127991    0.21010000
opls_145-312    C    0.07246011    0.91066983    0.81494013    -0.23400000
opls_145-313    C    0.08812012    0.89852997    0.85798048    -0.12150000
opls_145-314    C    0.11911014    0.92125971    0.99984997    -0.17580000
opls_700-315    C    0.13474006    0.95618990    0.09849028    0.06760000
opls_145-316    C    0.13412008    0.00429001    0.15608981    -0.12210000
opls_145-317    C    0.11813997    0.01749999    0.11588025    -0.13470000
opls_182-318    C    0.03020999    0.95167997    0.78826022    -0.01450000
opls_182-319    C    0.02768009    0.91666986    0.65865028    -0.02370000
opls_700-320    C    0.15178990    0.94230988    0.14095981    0.06860000
opls_145-321    C    0.17825991    0.95572004    0.16654035    -0.12030000
opls_145-322    C    0.19437004    0.94270016    0.20699048    -0.12850000
opls_700-323    C    0.18418991    0.91652990    0.22373979    0.11090000
opls_145-324    C    0.15779990    0.90259990    0.19679000    -0.13100000
opls_145-325    C    0.14171994    0.91546006    0.15588028    -0.12990000
opls_700-326    C    0.90154996    0.02219005    0.74674003    0.08780000
opls_700-327    C    0.90147007    0.99642000    0.77293018    0.02070000
opls_700-328    C    0.91830999    0.95557990    0.71157035    -0.09520000
opls_166-329    C    0.93550007    0.94215975    0.62827991    0.21430000
opls_145-330    C    0.93463992    0.96781997    0.60238034    -0.20660000
opls_145-331    C    0.91777007    0.00706002    0.66032047    -0.13580000
opls_145-332    C    0.88598011    0.06381002    0.80963036    -0.17360000
opls_700-333    C    0.87030012    0.08081005    0.89969036    0.07070000
opls_145-334    C    0.86993011    0.05512997    0.92508983    -0.12200000
opls_145-335    C    0.88540997    0.01358011    0.86299018    -0.13560000
opls_700-336    C    0.85441001    0.12543009    0.96652034    0.06320000
opls_145-337    C    0.82785010    0.12628997    0.98748005    -0.13280000
opls_145-338    C    0.81234990    0.16699994    0.04125979    -0.12870000
opls_700-339    C    0.82325007    0.20764992    0.07618976    0.10120000
opls_145-340    C    0.85001003    0.20748990    0.05923006    -0.12310000
opls_145-341    C    0.86544001    0.16670995    0.00470015    -0.12200000
opls_700-342    C    0.08763999    0.04409000    0.02185990    -0.08520000
opls_700-343    C    0.11000997    0.06045002    0.01064023    0.02890000
opls_700-344    C    0.11001005    0.10758999    0.06036996    0.08770000
opls_145-345    C    0.08833010    0.13808000    0.12252996    -0.13010000
opls_145-346    C    0.06652005    0.12225982    0.13476968    -0.21540000
opls_166-347    C    0.06565998    0.07490995    0.08341977    0.22290000
opls_145-348    C    0.13173003    0.12373984    0.04731972    -0.17540000
opls_700-349    C    0.15392003    0.09397002    0.98754041    0.06690000
opls_145-350    C    0.15423003    0.04815004    0.94258068    -0.13580000
opls_145-351    C    0.13246006    0.03105994    0.95138000    -0.12650000
opls_182-352    C    0.00085011    0.06091009    0.15576043    -0.02350000
opls_182-353    C    0.02365993    0.08920995    0.17073005    -0.02040000
opls_700-354    C    0.17651003    0.11019000    0.96990987    0.06290000
opls_145-355    C    0.20233004    0.10049999    0.97857985    -0.13530000
opls_145-356    C    0.22351016    0.11594999    0.96203058    -0.12420000
opls_700-357    C    0.21927998    0.14126017    0.93644056    0.09900000
opls_145-358    C    0.19357013    0.15034994    0.92602020    -0.12030000
opls_145-359    C    0.17238002    0.13486017    0.94233062    -0.12690000
opls_700-360    C    0.92088998    0.92972976    0.74218990    -0.08870000
opls_700-361    C    0.90103001    0.89884977    0.71649986    0.01720000
opls_700-362    C    0.90512007    0.87465005    0.74618042    0.08710000
opls_145-363    C    0.92925008    0.87849993    0.79244043    -0.12360000
opls_145-364    C    0.94880011    0.90818988    0.81557044    -0.21040000
opls_166-365    C    0.94429001    0.93568986    0.79678017    0.20060000
opls_145-366    C    0.88491998    0.84738987    0.73084004    -0.18720000
opls_700-367    C    0.86050001    0.84320989    0.68511980    0.06630000
opls_145-368    C    0.85704996    0.86491992    0.64960004    -0.13460000
opls_145-369    C    0.87706007    0.89210999    0.66434030    -0.13480000
opls_700-370    C    0.83840000    0.81812992    0.67955049    0.06660000
opls_145-371    C    0.81281009    0.83705988    0.70667015    -0.13100000
opls_145-372    C    0.79235012    0.81565981    0.70956992    -0.12850000
opls_700-373    C    0.79701007    0.77492977    0.68576994    0.11370000
opls_145-374    C    0.82241995    0.75538997    0.65667054    -0.13510000
opls_145-375    C    0.84286007    0.77656991    0.65298008    -0.13480000
opls_182-376    C    0.97735006    0.04954999    0.01889978    -0.01780000
opls_182-377    C    0.95488014    0.01919000    0.93310018    -0.01510000
opls_182-378    C    0.99657008    0.86848006    0.50827032    -0.01780000
opls_182-379    C    0.97610005    0.90020988    0.52255014    -0.01450000
opls_182-380    C    0.44295997    0.42358988    0.64066018    -0.01180000
opls_182-381    C    0.46761003    0.39268011    0.59644026    -0.01890000
opls_182-382    C    0.47059991    0.59947012    0.18917024    -0.02870000
opls_182-383    C    0.45930005    0.58959997    0.09047044    -0.02050000
opls_179-384    O    0.45015997    0.47370007    0.22646021    -0.23070000
opls_180-385    O    0.49778999    0.58993977    0.67304994    -0.19380000
opls_179-386    O    0.54501994    0.54460997    0.61267050    -0.25930000
opls_179-387    O    0.46418010    0.54060003    0.48111014    -0.23410000
opls_180-388    O    0.48141007    0.40778002    0.19091027    -0.21680000
opls_179-389    O    0.54493999    0.46330985    0.32718976    -0.26650000
opls_179-390    O    0.05616992    0.97101999    0.32649047    -0.23470000
opls_179-391    O    0.95337992    0.90384006    0.07593022    -0.21630000
opls_179-392    O    0.04342005    0.05612019    0.58760042    -0.25250000
opls_179-393    O    0.96307992    0.96992999    0.33553036    -0.23010000
opls_180-394    O    0.00374008    0.88970994    0.11767029    -0.22430000
opls_180-395    O    0.98945012    0.02568008    0.54148010    -0.23400000
opls_179-396    O    0.45015997    0.47369993    0.72645978    -0.23070000
opls_180-397    O    0.49778999    0.58994015    0.17305038    -0.19390000
opls_179-398    O    0.54501994    0.54460984    0.11267007    -0.25940000
opls_179-399    O    0.46418010    0.54060016    0.98111057    -0.23410000
opls_180-400    O    0.48141007    0.40777988    0.69090984    -0.21680000
opls_179-401    O    0.54493999    0.46330998    0.82719019    -0.26650000
opls_179-402    O    0.05617011    0.97101985    0.82649004    -0.23470000
opls_179-403    O    0.95337992    0.90383968    0.57592979    -0.21630000
opls_179-404    O    0.04342005    0.05612005    0.08759999    -0.25250000
opls_179-405    O    0.96307998    0.96992989    0.83554028    -0.23030000
opls_180-406    O    0.00374007    0.88970980    0.61766986    -0.22420000
opls_180-407    O    0.98944992    0.02567994    0.04147966    -0.23400000
opls_753-408    N    0.30317990    0.85761986    0.04269976    -0.30540000
opls_753-409    N    0.32851991    0.15808015    0.01926020    -0.30530000
opls_753-410    N    0.67871012    0.43376994    0.91259057    -0.34970000
opls_753-411    N    0.68747004    0.52909991    0.98522008    -0.31880000
opls_753-412    N    0.19337992    0.01593021    0.04878038    -0.31810000
opls_753-413    N    0.26551003    0.04160011    0.18266021    -0.31810000
opls_753-414    N    0.82948011    0.32425977    0.90225989    -0.31810000
opls_753-415    N    0.75060998    0.70343986    0.93564987    -0.31810000
opls_753-416    N    0.30318009    0.85761999    0.54270019    -0.30530000
opls_753-417    N    0.32852010    0.15807977    0.51925977    -0.30540000
opls_753-418    N    0.67870992    0.43377006    0.41259014    -0.34980000
opls_753-419    N    0.68747004    0.52910004    0.48522051    -0.31880000
opls_753-420    N    0.19338012    0.01592983    0.54877995    -0.31810000
opls_753-421    N    0.26551003    0.04159998    0.68265978    -0.31810000
opls_753-422    N    0.82948011    0.32426015    0.40226032    -0.31810000
opls_753-423    N    0.75061005    0.70343976    0.43565979    -0.31800000
opls_185-424    H    0.99194001    0.05431996    0.48084025    0.05640000
opls_185-425    H    0.96919995    0.08598994    0.59760000    0.05510000
opls_185-426    H    0.94873994    0.03491009    0.40360026    0.05720000
opls_185-427    H    0.93807006    0.02219004    0.47853027    0.05600000
opls_185-428    H    0.98784006    0.83239991    0.95661992    0.05650000
opls_185-429    H    0.01343993    0.86184991    0.95768998    0.05520000
opls_185-430    H    0.97081990    0.88343993    0.93640003    0.05630000
opls_185-431    H    0.98475995    0.93667999    0.07688043    0.05670000
opls_185-432    H    0.43248008    0.41344992    0.06811991    0.05640000
opls_185-433    H    0.42993993    0.41604008    0.17682016    0.05630000
opls_185-434    H    0.47905006    0.39443001    0.04490023    0.05630000
opls_185-435    H    0.46177002    0.35419004    0.03650014    0.05650000
opls_185-436    H    0.46723012    0.63833006    0.77177044    0.05650000
opls_185-437    H    0.45985013    0.57682011    0.69192041    0.05610000
opls_185-438    H    0.46895999    0.61419003    0.59184013    0.05770000
opls_185-439    H    0.43802003    0.59829990    0.60354008    0.05600000
opls_146-440    H    0.14588007    0.03182005    0.73319054    0.11040000
opls_146-441    H    0.11808999    0.05517001    0.66400057    0.11680000
opls_146-442    H    0.54976001    0.37232003    0.22420024    0.11470000
opls_146-443    H    0.58036003    0.34518016    0.27876032    0.11010000
opls_146-444    H    0.61536000    0.36219007    0.40211028    0.10730000
opls_146-445    H    0.65001006    0.50423998    0.65967033    0.09560000
opls_146-446    H    0.62003005    0.53281995    0.60898005    0.11940000
opls_146-447    H    0.57456011    0.66129995    0.64889989    0.11710000
opls_146-448    H    0.54403004    0.63300997    0.69599025    0.11660000
opls_146-449    H    0.61220993    0.64760993    0.54313994    0.11290000
opls_146-450    H    0.65218003    0.50950989    0.30805976    0.11680000
opls_146-451    H    0.62239995    0.47997991    0.35260992    0.10890000
opls_146-452    H    0.43470991    0.52008998    0.18241016    0.11880000
opls_146-453    H    0.40060993    0.58244003    0.28095045    0.11400000
opls_146-454    H    0.36813998    0.63393001    0.43110018    0.11110000
opls_146-455    H    0.35380996    0.62258999    0.65632995    0.11230000
opls_146-456    H    0.38605997    0.55746988    0.55438030    0.10850000
opls_146-457    H    0.44949010    0.42455010    0.45987020    0.10890000
opls_146-458    H    0.47686003    0.48541000    0.50477991    0.11630000
opls_146-459    H    0.40780995    0.38294010    0.39744031    0.10810000
opls_146-460    H    0.34619000    0.40992993    0.27545012    0.11190000
opls_146-461    H    0.37350010    0.46763016    0.30992051    0.11600000
opls_185-462    H    0.49875006    0.54681994    0.69681026    0.05520000
opls_185-463    H    0.50115004    0.61175983    0.82761011    0.05600000
opls_185-464    H    0.54305013    0.56224983    0.76038005    0.05610000
opls_185-465    H    0.54558004    0.61393979    0.78973985    0.05710000
opls_185-466    H    0.50674000    0.44875992    0.19426962    0.05600000
opls_185-467    H    0.51957004    0.39174976    0.13342973    0.05610000
opls_185-468    H    0.51512007    0.43055985    0.33731006    0.05520000
opls_185-469    H    0.50704000    0.48611011    0.38611027    0.04900000
opls_146-470    H    0.30899004    0.63782015    0.61483045    0.11060000
opls_146-471    H    0.27641003    0.70229983    0.70364018    0.11200000
opls_146-472    H    0.33352006    0.78375001    0.71954018    0.11300000
opls_146-473    H    0.36580995    0.71943003    0.63018032    0.11320000
opls_146-474    H    0.34097999    0.32507988    0.15513012    0.11330000
opls_146-475    H    0.31076004    0.27263991    0.13280977    0.11120000
opls_146-476    H    0.33971998    0.32918997    0.45076995    0.10830000
opls_146-477    H    0.36964004    0.38247989    0.47512005    0.11320000
opls_146-478    H    0.62308005    0.37373999    0.55989011    0.11020000
opls_146-479    H    0.65338997    0.34160997    0.60288994    0.11210000
opls_146-480    H    0.71680009    0.41952985    0.63562978    0.11580000
opls_146-481    H    0.68662001    0.45225987    0.59408976    0.11510000
opls_146-482    H    0.68671009    0.56314986    0.37265995    0.11210000
opls_146-483    H    0.71403002    0.58663974    0.30534969    0.11480000
opls_146-484    H    0.64797001    0.65897007    0.32221024    0.11660000
opls_146-485    H    0.62019008    0.63337993    0.38375976    0.11320000
opls_702-486    H    0.29052001    0.81189996    0.76682023    0.12170000
opls_702-487    H    0.26660006    0.76532003    0.69048044    0.11970000
opls_702-488    H    0.25891004    0.78429979    0.86336009    0.04470000
opls_702-489    H    0.29438009    0.28996999    0.36644050    0.08160000
opls_702-490    H    0.28700007    0.25648002    0.22147982    0.11730000
opls_702-491    H    0.33424011    0.23226006    0.28756050    0.09100000
opls_702-492    H    0.70097007    0.68091980    0.34271985    0.08660000
opls_702-493    H    0.72074998    0.62734986    0.25910003    0.11730000
opls_702-494    H    0.67172007    0.63963000    0.17432048    0.04830000
opls_702-495    H    0.69661999    0.32576988    0.62049978    0.11510000
opls_702-496    H    0.72280004    0.33898013    0.58000050    0.11970000
opls_702-497    H    0.72690007    0.42266001    0.78417054    0.04970000
opls_146-498    H    0.27707010    0.89614993    0.94108035    0.11620000
opls_146-499    H    0.24537995    0.94182993    0.94208057    0.11590000
opls_146-500    H    0.18316010    0.85191993    0.86947003    0.11040000
opls_146-501    H    0.21499010    0.80601995    0.86853017    0.11070000
opls_146-502    H    0.68382004    0.69484995    0.17273996    0.11650000
opls_146-503    H    0.71557999    0.72787015    0.13996046    0.11560000
opls_146-504    H    0.77381999    0.62647005    0.04932015    0.11460000
opls_146-505    H    0.74223007    0.59384980    0.08304987    0.11030000
opls_146-506    H    0.70797014    0.32522986    0.76034987    0.10900000
opls_146-507    H    0.74031015    0.27718003    0.74981052    0.11070000
opls_146-508    H    0.80245001    0.35837989    0.78717033    0.11630000
opls_146-509    H    0.77011998    0.40642987    0.79777003    0.11610000
opls_146-510    H    0.32564995    0.19954998    0.35301000    0.11620000
opls_146-511    H    0.29712006    0.15874018    0.37322041    0.10980000
opls_146-512    H    0.23620994    0.15129002    0.18333019    0.11320000
opls_146-513    H    0.26516994    0.18951998    0.15730990    0.11660000
opls_702-514    H    0.17318002    0.90814986    0.86719023    0.09110000
opls_702-515    H    0.20211001    0.86049993    0.69396999    0.11000000
opls_702-516    H    0.22231998    0.91231986    0.77209983    0.10310000
opls_702-517    H    0.22712000    0.12060998    0.25210024    0.09100000
opls_702-518    H    0.23806000    0.19705989    0.46988012    0.11840000
opls_702-519    H    0.26016001    0.15952990    0.45908985    0.11510000
opls_702-520    H    0.78368996    0.25258016    0.73331040    0.04390000
opls_702-521    H    0.81724003    0.27377996    0.62663042    0.10780000
opls_702-522    H    0.79016000    0.23326999    0.55595995    0.11730000
opls_702-523    H    0.78551004    0.67865974    0.03948958    0.09110000
opls_702-524    H    0.78159993    0.75237999    0.25553029    0.11000000
opls_702-525    H    0.75755004    0.77736006    0.23387043    0.11350000
opls_146-526    H    0.06146004    0.88211988    0.23607005    0.11340000
opls_146-527    H    0.08857993    0.86108015    0.31228050    0.10880000
opls_146-528    H    0.11973000    0.88383003    0.45446040    0.10720000
opls_185-529    H    0.01634006    0.98213986    0.33200977    0.05120000
opls_185-530    H    0.02432994    0.93343970    0.31118975    0.05520000
opls_185-531    H    0.04429000    0.89033994    0.11457997    0.05610000
opls_185-532    H    0.02863006    0.93829976    0.14197986    0.05600000
opls_146-533    H    0.18645995    0.97609005    0.65490033    0.11200000
opls_146-534    H    0.21474008    0.95325988    0.72573031    0.11640000
opls_146-535    H    0.14967002    0.88155988    0.70690986    0.11200000
opls_146-536    H    0.12132997    0.90488004    0.63716028    0.10920000
opls_146-537    H    0.91792010    0.02636002    0.13929997    0.11360000
opls_146-538    H    0.88611993    0.08314008    0.28867022    0.11190000
opls_146-539    H    0.85806003    0.06775990    0.49468980    0.11200000
opls_146-540    H    0.88495005    0.99549984    0.38728984    0.11200000
opls_146-541    H    0.81886999    0.09463990    0.45779992    0.10900000
opls_146-542    H    0.79166001    0.16605018    0.55195047    0.11190000
opls_146-543    H    0.85883006    0.23830001    0.58516024    0.11590000
opls_146-544    H    0.88593995    0.16702009    0.49058029    0.11620000
opls_146-545    H    0.08820007    0.17431978    0.66171991    0.11710000
opls_146-546    H    0.05042008    0.14743010    0.68357032    0.08880000
opls_146-547    H    0.13148995    0.15966983    0.58482999    0.11460000
opls_146-548    H    0.17122999    0.02494993    0.39848019    0.10680000
opls_146-549    H    0.13352996    0.99468998    0.41168994    0.10900000
opls_185-550    H    0.03202001    0.11380003    0.75900992    0.05650000
opls_185-551    H    0.01587002    0.11130993    0.66041014    0.05900000
opls_146-552    H    0.20617005    0.08153988    0.49975986    0.11070000
opls_146-553    H    0.24322000    0.10805009    0.46911013    0.11170000
opls_146-554    H    0.18994012    0.16946985    0.40542997    0.11660000
opls_146-555    H    0.15274008    0.14162023    0.43198054    0.11330000
opls_146-556    H    0.93280002    0.85914008    0.31275043    0.11110000
opls_146-557    H    0.96722992    0.91154994    0.35307985    0.11190000
opls_146-558    H    0.88799002    0.83080998    0.25859044    0.10830000
opls_146-559    H    0.83871998    0.86109979    0.11091969    0.11190000
opls_146-560    H    0.87339999    0.90841997    0.13658042    0.11420000
opls_146-561    H    0.80868995    0.86927004    0.22904008    0.11600000
opls_146-562    H    0.77293008    0.83130985    0.23203986    0.11650000
opls_146-563    H    0.82649995    0.72395982    0.13809971    0.11190000
opls_146-564    H    0.86219990    0.76043004    0.12979015    0.11100000
opls_185-565    H    0.98558997    0.08513008    0.72079045    0.07390000
opls_185-566    H    0.00825014    0.03900999    0.66931983    0.03900000
opls_146-567    H    0.94735006    0.95824013    0.03862043    0.11020000
opls_185-568    H    0.99194001    0.05431983    0.98083982    0.05640000
opls_185-569    H    0.96919995    0.08599008    0.09760043    0.05510000
opls_185-570    H    0.94874013    0.03490995    0.90359983    0.05650000
opls_185-571    H    0.93807006    0.02218991    0.97852984    0.05600000
opls_185-572    H    0.98784006    0.83240004    0.45662035    0.05650000
opls_185-573    H    0.01343993    0.86185005    0.45769041    0.05520000
opls_185-574    H    0.97082010    0.88344007    0.43640046    0.05630000
opls_185-575    H    0.98476008    0.93668009    0.57687051    0.05600000
opls_185-576    H    0.43248008    0.41345006    0.56812034    0.05640000
opls_185-577    H    0.42994013    0.41604021    0.67682059    0.05630000
opls_185-578    H    0.47905006    0.39442988    0.54489980    0.05630000
opls_185-579    H    0.46177002    0.35419018    0.53650057    0.05650000
opls_185-580    H    0.46722993    0.63832992    0.27177001    0.05650000
opls_185-581    H    0.45984993    0.57681998    0.19191998    0.05610000
opls_185-582    H    0.46895999    0.61418990    0.09183970    0.05770000
opls_185-583    H    0.43802003    0.59829977    0.10353965    0.05600000
opls_146-584    H    0.14588007    0.03181991    0.23319011    0.11040000
opls_146-585    H    0.11808999    0.05517012    0.16400014    0.11680000
opls_146-586    H    0.54976001    0.37231989    0.72419981    0.11460000
opls_146-587    H    0.58036004    0.34517978    0.77875989    0.11010000
opls_146-588    H    0.61535999    0.36218993    0.90210985    0.10730000
opls_146-589    H    0.65001006    0.50423985    0.15966989    0.09560000
opls_146-590    H    0.62003005    0.53281981    0.10897962    0.11940000
opls_146-591    H    0.57455991    0.66130008    0.14890032    0.11710000
opls_146-592    H    0.54403004    0.63300984    0.19598982    0.11560000
opls_146-593    H    0.61220994    0.64761007    0.04314037    0.11290000
opls_146-594    H    0.65218003    0.50951003    0.80806019    0.11680000
opls_146-595    H    0.62240014    0.47998005    0.85261035    0.10900000
opls_146-596    H    0.43471011    0.52009011    0.68241059    0.11880000
opls_146-597    H    0.40061013    0.58243990    0.78095002    0.11400000
opls_146-598    H    0.36813998    0.63393014    0.93110061    0.11100000
opls_146-599    H    0.35380996    0.62259012    0.15633038    0.11230000
opls_146-600    H    0.38605996    0.55746999    0.05437987    0.10850000
opls_146-601    H    0.44949010    0.42454999    0.95987063    0.10890000
opls_146-602    H    0.47686003    0.48540988    0.00478034    0.11640000
opls_146-603    H    0.40781015    0.38293997    0.89743988    0.10810000
opls_146-604    H    0.34619000    0.40993006    0.77545055    0.11190000
opls_146-605    H    0.37350010    0.46763003    0.80992008    0.11600000
opls_185-606    H    0.49875006    0.54681981    0.19680983    0.05520000
opls_185-607    H    0.50115004    0.61175970    0.32760968    0.05600000
opls_185-608    H    0.54304994    0.56224997    0.26038048    0.05610000
opls_185-609    H    0.54558004    0.61393992    0.28974028    0.05710000
opls_185-610    H    0.50674000    0.44875981    0.69427005    0.05600000
opls_185-611    H    0.51957004    0.39174989    0.63343016    0.05610000
opls_185-612    H    0.51512007    0.43055999    0.83731049    0.05520000
opls_185-613    H    0.50704000    0.48610973    0.88610984    0.04900000
opls_146-614    H    0.30899003    0.63782001    0.11483002    0.11060000
opls_146-615    H    0.27641002    0.70229994    0.20363975    0.11400000
opls_146-616    H    0.33351993    0.78374991    0.21955009    0.11660000
opls_146-617    H    0.36580994    0.71942990    0.13017989    0.11320000
opls_146-618    H    0.34097999    0.32508001    0.65513055    0.11330000
opls_146-619    H    0.31076004    0.27264005    0.63281020    0.11120000
opls_146-620    H    0.33971999    0.32919010    0.95077038    0.10890000
opls_146-621    H    0.36964004    0.38248002    0.97512048    0.11320000
opls_146-622    H    0.62308005    0.37373986    0.05988968    0.11020000
opls_146-623    H    0.65338997    0.34161010    0.10289037    0.11220000
opls_146-624    H    0.71680009    0.41952999    0.13563021    0.11580000
opls_146-625    H    0.68662001    0.45226000    0.09409019    0.11510000
opls_146-626    H    0.68671010    0.56314999    0.87266038    0.11210000
opls_146-627    H    0.71403002    0.58663987    0.80535012    0.11480000
opls_146-628    H    0.64797001    0.65896969    0.82220981    0.11660000
opls_146-629    H    0.62019008    0.63337982    0.88376019    0.11320000
opls_702-630    H    0.29052001    0.81189983    0.26681980    0.12170000
opls_702-631    H    0.26660006    0.76531989    0.19048001    0.11970000
opls_702-632    H    0.25891004    0.78430017    0.36336052    0.04470000
opls_702-633    H    0.29438009    0.28996986    0.86644007    0.08160000
opls_702-634    H    0.28700007    0.25647991    0.72148025    0.11730000
opls_702-635    H    0.33424010    0.23225993    0.78756007    0.09100000
opls_702-636    H    0.70097007    0.68091994    0.84272028    0.08660000
opls_702-637    H    0.72074998    0.62735000    0.75910046    0.11730000
opls_702-638    H    0.67172007    0.63962986    0.67432005    0.04830000
opls_702-639    H    0.69661999    0.32577001    0.12050021    0.11510000
opls_702-640    H    0.72280004    0.33898000    0.08000007    0.11970000
opls_702-641    H    0.72690007    0.42265988    0.28417011    0.04970000
opls_146-642    H    0.27707010    0.89614979    0.44107992    0.11620000
opls_146-643    H    0.24537995    0.94183004    0.44208014    0.11590000
opls_146-644    H    0.18316010    0.85192006    0.36947046    0.11040000
opls_146-645    H    0.21499010    0.80601982    0.36852974    0.11070000
opls_146-646    H    0.68382004    0.69485008    0.67274039    0.11650000
opls_146-647    H    0.71558000    0.72786977    0.63996003    0.11560000
opls_146-648    H    0.77381998    0.62646991    0.54931972    0.11460000
opls_146-649    H    0.74223007    0.59384993    0.58305030    0.11030000
opls_146-650    H    0.70796995    0.32522999    0.26035030    0.10910000
opls_146-651    H    0.74030995    0.27717990    0.24981009    0.11070000
opls_146-652    H    0.80245001    0.35838000    0.28716990    0.11630000
opls_146-653    H    0.77011999    0.40643000    0.29777047    0.11610000
opls_146-654    H    0.32565014    0.19955011    0.85301044    0.11620000
opls_146-655    H    0.29712006    0.15873980    0.87321998    0.11120000
opls_146-656    H    0.23621014    0.15128989    0.68332975    0.11320000
opls_146-657    H    0.26517014    0.18952011    0.65731033    0.11660000
opls_702-658    H    0.17318002    0.90814972    0.36718980    0.09110000
opls_702-659    H    0.20211001    0.86050006    0.19397042    0.11000000
opls_702-660    H    0.22231998    0.91231999    0.27210026    0.10310000
opls_702-661    H    0.22712000    0.12060984    0.75209981    0.09100000
opls_702-662    H    0.23806000    0.19706003    0.96988055    0.11830000
opls_702-663    H    0.26016001    0.15953004    0.95909029    0.11510000
opls_702-664    H    0.78368996    0.25258003    0.23330997    0.04390000
opls_702-665    H    0.81724003    0.27378008    0.12662999    0.10780000
opls_702-666    H    0.79016000    0.23327013    0.05596038    0.11740000
opls_702-667    H    0.78551011    0.67865991    0.53950036    0.09100000
opls_702-668    H    0.78160012    0.75237986    0.75552986    0.11000000
opls_702-669    H    0.75755004    0.77735993    0.73387000    0.11350000
opls_146-670    H    0.06146004    0.88212001    0.73607048    0.11340000
opls_146-671    H    0.08858013    0.86107977    0.81228007    0.10880000
opls_146-672    H    0.11973000    0.88382989    0.95445997    0.10720000
opls_185-673    H    0.01634006    0.98214000    0.83201020    0.05120000
opls_185-674    H    0.02432994    0.93343983    0.81119018    0.05520000
opls_185-675    H    0.04429000    0.89034007    0.61458040    0.05610000
opls_185-676    H    0.02863006    0.93829990    0.64198029    0.05600000
opls_146-677    H    0.18645995    0.97608991    0.15489990    0.11200000
opls_146-678    H    0.21474008    0.95325974    0.22572988    0.11630000
opls_146-679    H    0.14967002    0.88156001    0.20691029    0.11200000
opls_146-680    H    0.12132997    0.90487991    0.13715985    0.10920000
opls_146-681    H    0.91792010    0.02636016    0.63930040    0.11360000
opls_146-682    H    0.88612012    0.08313995    0.78866979    0.11200000
opls_146-683    H    0.85806003    0.06776004    0.99469023    0.11190000
opls_146-684    H    0.88495005    0.99549997    0.88729027    0.11200000
opls_146-685    H    0.81886999    0.09464004    0.95780035    0.10900000
opls_146-686    H    0.79166001    0.16605005    0.05195003    0.11190000
opls_146-687    H    0.85883006    0.23829988    0.08515981    0.11590000
opls_146-688    H    0.88593995    0.16701995    0.99057986    0.11320000
opls_146-689    H    0.08820007    0.17432016    0.16172034    0.11710000
opls_146-690    H    0.05042007    0.14742997    0.18356989    0.08880000
opls_146-691    H    0.13148995    0.15967020    0.08483042    0.11680000
opls_146-692    H    0.17122999    0.02495006    0.89848062    0.10680000
opls_146-693    H    0.13353016    0.99469012    0.91169037    0.10910000
opls_185-694    H    0.03202001    0.11380016    0.25901035    0.05650000
opls_185-695    H    0.01587002    0.11130979    0.16040971    0.05900000
opls_146-696    H    0.20617005    0.08154002    0.99976029    0.11070000
opls_146-697    H    0.24322000    0.10804998    0.96911056    0.11170000
opls_146-698    H    0.18994012    0.16946999    0.90543040    0.11660000
opls_146-699    H    0.15274008    0.14161986    0.93198011    0.11330000
opls_146-700    H    0.93280002    0.85913994    0.81275000    0.11110000
opls_146-701    H    0.96722998    0.91155010    0.85309063    0.11230000
opls_146-702    H    0.88799002    0.83080985    0.75859001    0.10830000
opls_146-703    H    0.83871998    0.86109992    0.61092012    0.11190000
opls_146-704    H    0.87339999    0.90841984    0.63657998    0.11420000
opls_146-705    H    0.80868996    0.86926992    0.72904051    0.11600000
opls_146-706    H    0.77293008    0.83130998    0.73204029    0.11650000
opls_146-707    H    0.82649996    0.72395995    0.63810014    0.11190000
opls_146-708    H    0.86220010    0.76043018    0.62979058    0.11100000
opls_185-709    H    0.98558997    0.08512995    0.22079002    0.07390000
opls_185-710    H    0.00824994    0.03901013    0.16932026    0.03890000
opls_146-711    H    0.94735006    0.95823975    0.53861999    0.11020000
