#======================================================================
# Crystal Data Generated By AuToFF
#----------------------------------------------------------------------

data_AuToFF_phase_1

_cell_length_a                         20.3239
_cell_length_b                         47.6649
_cell_length_c                         15.1319
_cell_angle_alpha                      90.00
_cell_angle_beta                       90.00
_cell_angle_gamma                      90.00
_symmetry_space_group_name_H-M_alt     'P 1'
_symmetry_space_group_IT_number        1

loop_
_space_group_symop_operation_xyz
   'x, y, z'

loop_
   _atom_site_label
   _atom_site_type_symbol
   _atom_site_fract_x
   _atom_site_fract_y
   _atom_site_fract_z
   _atom_site_charge
opls_145-0    C    0.35619984    0.39362004    0.27996022    0.12580000
opls_145-1    C    0.30272979    0.38428005    0.32115993    -0.18490000
opls_145-2    C    0.39777995    0.37474997    0.22729994    -0.17940000
opls_145-3    C    0.28382988    0.35438006    0.31780014    -0.06280000
opls_145-4    C    0.38435979    0.34713007    0.21667999    -0.04730000
opls_166-5    C    0.32435999    0.33531991    0.26215016    0.31620000
opls_142-6    C    0.23273978    0.34653991    0.36755992    0.08420000
opls_516-7    C    0.42988993    0.32806992    0.16050000    0.24590000
opls_135-8    C    0.45832001    0.30440009    0.21865000    -0.46870000
opls_135-9    C    0.39068978    0.31564002    0.08233996    -0.46870000
opls_135-10    C    0.48987005    0.34351000    0.12036030    -0.46850000
opls_137-11    C    0.14905013    0.31192995    0.42249024    0.10230000
opls_137-12    C    0.13435020    0.27968002    0.42125972    0.11340000
opls_166-13    C    0.24967009    0.23466996    0.21561998    0.31430000
opls_142-14    C    0.16434985    0.23647002    0.33520972    0.06200000
opls_145-15    C    0.27844016    0.21663006    0.14348033    -0.04730000
opls_145-16    C    0.19851013    0.22233006    0.27444009    -0.03710000
opls_145-17    C    0.25795984    0.18969997    0.13752999    -0.17850000
opls_516-18    C    0.32716998    0.22902010    0.07483991    0.24570000
opls_145-19    C    0.18048012    0.19263001    0.26052974    -0.17790000
opls_145-20    C    0.20755022    0.17766994    0.19590005    0.11820000
opls_135-21    C    0.29250980    0.25259006    0.02215981    -0.46870000
opls_135-22    C    0.38881022    0.24044003    0.12252989    -0.46860000
opls_135-23    C    0.35230000    0.20739999    0.00606005    -0.46870000
opls_261-24    C    0.37740001    0.42201998    0.29460015    -0.10500000
opls_261-25    C    0.18079010    0.15068992    0.17363979    -0.09510000
opls_261-26    C    0.15643995    0.12896009    0.14982983    -0.08950000
opls_261-27    C    0.39586005    0.44531007    0.31266992    -0.09980000
opls_700-28    C    0.41870015    0.47223009    0.34218968    0.12000000
opls_145-29    C    0.37594999    0.48998991    0.38770016    -0.12080000
opls_145-30    C    0.48558987    0.47864005    0.33805999    -0.13110000
opls_145-31    C    0.40040986    0.51328000    0.43312010    -0.13600000
opls_145-32    C    0.51009009    0.50219008    0.38178021    -0.13570000
opls_700-33    C    0.46838993    0.51962996    0.43235020    0.04320000
opls_700-34    C    0.12497995    0.10421002    0.11614999    0.12000000
opls_145-35    C    0.08577980    0.08774004    0.17117018    -0.11860000
opls_145-36    C    0.12784013    0.09846008    0.02576015    -0.12350000
opls_145-37    C    0.04788992    0.06605993    0.13549984    -0.13700000
opls_145-38    C    0.09039013    0.07673005    0.98998011    -0.13670000
opls_700-39    C    0.04973996    0.05996005    0.04406981    0.04340000
opls_145-40    C    0.70920001    0.67765001    0.30841996    0.12580000
opls_145-41    C    0.68212991    0.69233000    0.24293975    -0.18610000
opls_145-42    C    0.75965981    0.68990998    0.36666975    -0.18830000
opls_145-43    C    0.69988978    0.72200005    0.22827008    -0.03560000
opls_145-44    C    0.78036991    0.71678006    0.35953978    -0.04750000
opls_166-45    C    0.75105024    0.73462002    0.28698974    0.29930000
opls_142-46    C    0.66547021    0.73587000    0.16687990    0.08810000
opls_516-47    C    0.82994996    0.72931990    0.42726029    0.24570000
opls_135-48    C    0.79570998    0.75282000    0.48042017    -0.46860000
opls_135-49    C    0.89076998    0.74090998    0.37857969    -0.46870000
opls_135-50    C    0.85647981    0.70777008    0.49551015    -0.46870000
opls_137-51    C    0.63522011    0.77864991    0.07881033    0.11350000
opls_137-52    C    0.64894976    0.81094999    0.07727979    0.10300000
opls_166-53    C    0.82435015    0.83528005    0.23753990    0.31490000
opls_142-54    C    0.73247015    0.84594995    0.13113026    0.07940000
opls_145-55    C    0.88428992    0.84734008    0.28296975    -0.04750000
opls_145-56    C    0.78347020    0.85408005    0.18109028    -0.04050000
opls_145-57    C    0.89728005    0.87495998    0.27181980    -0.18830000
opls_516-58    C    0.93025010    0.82850001    0.33967975    0.24600000
opls_145-59    C    0.80191991    0.88401990    0.17710995    -0.18560000
opls_145-60    C    0.85529008    0.89359004    0.21850990    0.11980000
opls_135-61    C    0.95880023    0.80478004    0.28210998    -0.46860000
opls_135-62    C    0.89148982    0.81613997    0.41798981    -0.46850000
opls_135-63    C    0.99015986    0.84415996    0.37961988    -0.46860000
opls_261-64    C    0.68258996    0.65071006    0.33110977    -0.09320000
opls_261-65    C    0.87606020    0.92200991    0.20348007    -0.10230000
opls_261-66    C    0.89440019    0.94530000    0.18529993    -0.09570000
opls_261-67    C    0.65814976    0.62899996    0.35468976    -0.10770000
opls_700-68    C    0.62632024    0.60427002    0.38751974    0.11730000
opls_145-69    C    0.58780008    0.58777004    0.33135033    -0.12530000
opls_145-70    C    0.62803005    0.59857002    0.47801003    -0.12730000
opls_145-71    C    0.54946984    0.56608993    0.36588003    -0.13600000
opls_145-72    C    0.59015002    0.57685005    0.51266992    -0.13590000
opls_700-73    C    0.55020001    0.56003999    0.45738010    0.04320000
opls_700-74    C    0.91740020    0.97217995    0.15594010    0.12660000
opls_145-75    C    0.87501021    0.98989004    0.10923017    -0.12450000
opls_145-76    C    0.98422990    0.97859998    0.16165980    -0.11740000
opls_145-77    C    0.89982976    0.01317007    0.06429992    -0.13740000
opls_145-78    C    0.00907011    0.00213994    0.11845968    -0.13740000
opls_700-79    C    0.96777981    0.01955003    0.06679994    0.04320000
opls_145-80    C    0.28674024    0.31275991    0.82358990    0.05670000
opls_145-81    C    0.22494994    0.30622009    0.84442998    -0.18450000
opls_145-82    C    0.32803005    0.29341990    0.77159973    -0.15840000
opls_145-83    C    0.19462013    0.27963994    0.81448001    -0.03320000
opls_145-84    C    0.30614006    0.26828001    0.74163985    -0.04730000
opls_166-85    C    0.23639016    0.25990991    0.76276013    0.31720000
opls_142-86    C    0.13083020    0.27581994    0.83290003    0.07940000
opls_516-87    C    0.35171006    0.24823004    0.68855993    0.24570000
opls_135-88    C    0.36313011    0.22119002    0.74271968    -0.46860000
opls_135-89    C    0.32071994    0.24122992    0.59770022    -0.46870000
opls_135-90    C    0.42059988    0.26059994    0.66869990    -0.46870000
opls_137-91    C    0.02186982    0.25211004    0.79437017    0.10360000
opls_137-92    C    0.99463981    0.22138009    0.78920030    0.10440000
opls_166-93    C    0.14575992    0.16468995    0.67641010    0.30780000
opls_142-94    C    0.03773980    0.17262996    0.75158969    0.08440000
opls_145-95    C    0.18212991    0.14394009    0.61979989    -0.04750000
opls_145-96    C    0.08412017    0.15534009    0.72046009    -0.02070000
opls_145-97    C    0.16520993    0.11655998    0.62658027    -0.16310000
opls_516-98    C    0.23630996    0.15378990    0.55453975    0.24580000
opls_145-99    C    0.07128012    0.12481008    0.72408025    -0.18070000
opls_145-100    C    0.11003006    0.10669990    0.68163020    0.05710000
opls_135-101    C    0.20965021    0.17781995    0.49568990    -0.46870000
opls_135-102    C    0.29666993    0.16399992    0.60706983    -0.46870000
opls_135-103    C    0.26030978    0.13042008    0.49090002    -0.46860000
opls_261-104    C    0.31407997    0.33922992    0.85200999    -0.09140000
opls_261-105    C    0.09395982    0.07724007    0.67967010    -0.08140000
opls_261-106    C    0.08092000    0.05270000    0.67112986    -0.08260000
opls_261-107    C    0.33815016    0.36116996    0.87550010    -0.08740000
opls_700-108    C    0.36978975    0.38676007    0.90356994    0.11400000
opls_145-109    C    0.36823986    0.39482009    0.99235985    -0.12450000
opls_145-110    C    0.40799010    0.40200000    0.84376978    -0.12460000
opls_145-111    C    0.40682005    0.41723994    0.02185978    -0.13740000
opls_145-112    C    0.44701017    0.42428999    0.87316001    -0.13630000
opls_700-113    C    0.44718976    0.43242994    0.96298019    0.04320000
opls_700-114    C    0.06498015    0.02392998    0.65160026    0.12400000
opls_145-115    C    0.99987010    0.01479999    0.65723009    -0.12110000
opls_145-116    C    0.11207003    0.00672990    0.61185971    -0.12470000
opls_145-117    C    0.98107991    0.98942010    0.61858987    -0.13730000
opls_145-118    C    0.09323998    0.98162002    0.57126997    -0.13730000
opls_700-119    C    0.02667992    0.97292998    0.57090980    0.06230000
opls_145-120    C    0.60867009    0.60702991    0.81890972    0.05900000
opls_145-121    C    0.56940007    0.62522003    0.77728970    -0.17910000
opls_145-122    C    0.66461998    0.61678006    0.87322015    -0.15790000
opls_145-123    C    0.58274003    0.65572990    0.78056027    -0.03150000
opls_145-124    C    0.68166002    0.64414003    0.88019019    -0.04730000
opls_166-125    C    0.64507993    0.66492996    0.82366986    0.31590000
opls_142-126    C    0.53627011    0.67312005    0.74988005    0.07940000
opls_516-127    C    0.73608018    0.65390990    0.94569023    0.24580000
opls_135-128    C    0.71003006    0.67820996    0.00371004    -0.46870000
opls_135-129    C    0.79662024    0.66375006    0.89340995    -0.46870000
opls_135-130    C    0.75943987    0.63059001    0.01013025    -0.46870000
opls_137-131    C    0.49388995    0.72182990    0.71070982    0.10420000
opls_137-132    C    0.52133990    0.75250992    0.70545999    0.10350000
opls_166-133    C    0.73651022    0.75973998    0.73496983    0.31060000
opls_142-134    C    0.63022009    0.77605995    0.66678011    0.07930000
opls_145-135    C    0.80672017    0.76784993    0.75495014    -0.04750000
opls_145-136    C    0.69432983    0.77966995    0.68423000    -0.03300000
opls_145-137    C    0.82861016    0.79296002    0.72492020    -0.15560000
opls_516-138    C    0.85245991    0.74773009    0.80794018    0.24570000
opls_145-139    C    0.72461978    0.80622995    0.65433026    -0.17850000
opls_145-140    C    0.78681011    0.81255998    0.67420020    0.05870000
opls_135-141    C    0.86224986    0.72036006    0.75498979    -0.46870000
opls_135-142    C    0.82250011    0.74132999    0.89954004    -0.46850000
opls_135-143    C    0.92206023    0.75973998    0.82599013    -0.46870000
opls_261-144    C    0.59249012    0.57760008    0.82097027    -0.08270000
opls_261-145    C    0.81396976    0.83910991    0.64637025    -0.08440000
opls_261-146    C    0.83787019    0.86110996    0.62333018    -0.08090000
opls_261-147    C    0.57958020    0.55306001    0.82964003    -0.12070000
opls_700-148    C    0.56402019    0.52427006    0.84926017    0.12650000
opls_145-149    C    0.49907990    0.51493992    0.84275008    -0.12080000
opls_145-150    C    0.61133001    0.50721999    0.88963977    -0.12290000
opls_145-151    C    0.48067989    0.48950003    0.88104005    -0.13660000
opls_145-152    C    0.59286997    0.48202010    0.92979005    -0.13720000
opls_700-153    C    0.52646982    0.47312005    0.92925013    0.07680000
opls_700-154    C    0.86937989    0.88673993    0.59560002    0.12310000
opls_145-155    C    0.86795989    0.89473008    0.50674007    -0.12500000
opls_145-156    C    0.90756006    0.90201007    0.65572004    -0.12320000
opls_145-157    C    0.90681021    0.91705007    0.47747011    -0.13740000
opls_145-158    C    0.94680007    0.92421006    0.62656970    -0.13760000
opls_700-159    C    0.94720009    0.93224994    0.53667021    0.04320000
opls_136-160    C    0.01210988    0.27011008    0.13388008    -0.21350000
opls_136-161    C    0.08350021    0.26140997    0.11979989    -0.15040000
opls_136-162    C    0.08783993    0.23116990    0.08559996    -0.15140000
opls_136-163    C    0.03297989    0.21176002    0.12080968    -0.21350000
opls_136-164    C    0.85088984    0.32437999    0.48266972    -0.21600000
opls_136-165    C    0.90444009    0.31114006    0.42524006    -0.14800000
opls_136-166    C    0.89642982    0.27914000    0.41663968    -0.14800000
opls_136-167    C    0.85230984    0.26623008    0.48787000    -0.21360000
opls_136-168    C    0.53358017    0.71213010    0.37954983    -0.21350000
opls_136-169    C    0.58833984    0.73152005    0.41562989    -0.15160000
opls_136-170    C    0.58432978    0.76170998    0.38096009    -0.15030000
opls_136-171    C    0.51300981    0.77053996    0.36619988    -0.21180000
opls_136-172    C    0.34976013    0.76512990    0.01130988    -0.21360000
opls_136-173    C    0.39373988    0.77745993    0.08409982    -0.14810000
opls_136-174    C    0.40454982    0.80929993    0.07548028    -0.14760000
opls_136-175    C    0.35198018    0.82331002    0.01771027    -0.21610000
opls_701-176    C    0.00000000    0.03985008    0.00000000    0.01100000
opls_701-177    C    0.50000000    0.53991994    0.50000000    0.01100000
opls_701-178    C    0.00000000    0.95239998    0.50000000    0.01080000
opls_701-179    C    0.50000000    0.45259006    0.00000000    0.00990000
opls_145-180    C    0.64380016    0.39362004    0.72003978    0.12580000
opls_145-181    C    0.69727021    0.38428005    0.67884007    -0.18490000
opls_145-182    C    0.60222005    0.37474997    0.77270006    -0.17940000
opls_145-183    C    0.71617012    0.35438006    0.68219986    -0.06280000
opls_145-184    C    0.61564021    0.34713007    0.78332001    -0.04730000
opls_166-185    C    0.67564001    0.33531991    0.73784984    0.31620000
opls_142-186    C    0.76726022    0.34653991    0.63244008    0.08420000
opls_516-187    C    0.57011007    0.32806992    0.83950000    0.24600000
opls_135-188    C    0.54167999    0.30440009    0.78135000    -0.46860000
opls_135-189    C    0.60931022    0.31564002    0.91766004    -0.46870000
opls_135-190    C    0.51012995    0.34351000    0.87963970    -0.46870000
opls_137-191    C    0.85094987    0.31192995    0.57750976    0.10230000
opls_137-192    C    0.86564980    0.27968002    0.57874028    0.11340000
opls_166-193    C    0.75032991    0.23466996    0.78438002    0.31430000
opls_142-194    C    0.83565015    0.23647002    0.66479028    0.06200000
opls_145-195    C    0.72155984    0.21663006    0.85651967    -0.04730000
opls_145-196    C    0.80148987    0.22233006    0.72555991    -0.03710000
opls_145-197    C    0.74204016    0.18969997    0.86247001    -0.17840000
opls_516-198    C    0.67283002    0.22902010    0.92516009    0.24570000
opls_145-199    C    0.81951988    0.19263001    0.73947026    -0.17790000
opls_145-200    C    0.79244978    0.17766994    0.80409995    0.11820000
opls_135-201    C    0.70749020    0.25259006    0.97784019    -0.46870000
opls_135-202    C    0.61118978    0.24044003    0.87747011    -0.46870000
opls_135-203    C    0.64770000    0.20739999    0.99393995    -0.46860000
opls_261-204    C    0.62259999    0.42201998    0.70539985    -0.10500000
opls_261-205    C    0.81920990    0.15068992    0.82636021    -0.09510000
opls_261-206    C    0.84356005    0.12896009    0.85017017    -0.08950000
opls_261-207    C    0.60413995    0.44531007    0.68733008    -0.09980000
opls_700-208    C    0.58129985    0.47223009    0.65781032    0.12000000
opls_145-209    C    0.62405001    0.48998991    0.61229984    -0.12080000
opls_145-210    C    0.51441013    0.47864005    0.66194001    -0.13110000
opls_145-211    C    0.59959014    0.51328000    0.56687990    -0.13600000
opls_145-212    C    0.48990991    0.50219008    0.61821979    -0.13570000
opls_700-213    C    0.53161007    0.51962996    0.56764980    0.04320000
opls_700-214    C    0.87502005    0.10421002    0.88385001    0.12000000
opls_145-215    C    0.91422020    0.08774004    0.82882982    -0.11860000
opls_145-216    C    0.87215987    0.09846008    0.97423985    -0.12350000
opls_145-217    C    0.95211008    0.06605993    0.86450016    -0.13700000
opls_145-218    C    0.90960987    0.07673005    0.01001989    -0.13670000
opls_700-219    C    0.95026004    0.05996005    0.95593019    0.04340000
opls_145-220    C    0.29079999    0.67765001    0.69158004    0.12580000
opls_145-221    C    0.31787009    0.69233000    0.75706025    -0.18610000
opls_145-222    C    0.24034019    0.68990998    0.63333025    -0.18830000
opls_145-223    C    0.30011022    0.72200005    0.77172992    -0.03560000
opls_145-224    C    0.21963009    0.71678006    0.64046022    -0.04750000
opls_166-225    C    0.24894976    0.73462002    0.71301026    0.29930000
opls_142-226    C    0.33452979    0.73587000    0.83312010    0.08810000
opls_516-227    C    0.17005004    0.72931990    0.57273971    0.24570000
opls_135-228    C    0.20429002    0.75282000    0.51957983    -0.46870000
opls_135-229    C    0.10923002    0.74090998    0.62142031    -0.46870000
opls_135-230    C    0.14352019    0.70777008    0.50448985    -0.46870000
opls_137-231    C    0.36477989    0.77864991    0.92118967    0.11350000
opls_137-232    C    0.35105024    0.81094999    0.92272021    0.10300000
opls_166-233    C    0.17564985    0.83528005    0.76246010    0.31490000
opls_142-234    C    0.26752985    0.84594995    0.86886974    0.07940000
opls_145-235    C    0.11571008    0.84734008    0.71703025    -0.04750000
opls_145-236    C    0.21652980    0.85408005    0.81890972    -0.04050000
opls_145-237    C    0.10271995    0.87495998    0.72818020    -0.18830000
opls_516-238    C    0.06974990    0.82850001    0.66032025    0.24590000
opls_145-239    C    0.19808009    0.88401990    0.82289005    -0.18560000
opls_145-240    C    0.14470992    0.89359004    0.78149010    0.11980000
opls_135-241    C    0.04119977    0.80478004    0.71789002    -0.46870000
opls_135-242    C    0.10851018    0.81613997    0.58201019    -0.46870000
opls_135-243    C    0.00984014    0.84415996    0.62038012    -0.46870000
opls_261-244    C    0.31741004    0.65071006    0.66889023    -0.09320000
opls_261-245    C    0.12393980    0.92200991    0.79651993    -0.10230000
opls_261-246    C    0.10559981    0.94530000    0.81470007    -0.09560000
opls_261-247    C    0.34185024    0.62899996    0.64531024    -0.10770000
opls_700-248    C    0.37367976    0.60427002    0.61248026    0.11730000
opls_145-249    C    0.41219992    0.58777004    0.66864967    -0.12530000
opls_145-250    C    0.37196995    0.59857002    0.52198997    -0.12730000
opls_145-251    C    0.45053016    0.56608993    0.63411997    -0.13590000
opls_145-252    C    0.40984998    0.57685005    0.48733008    -0.13600000
opls_700-253    C    0.44979999    0.56003999    0.54261990    0.04320000
opls_700-254    C    0.08259980    0.97217995    0.84405990    0.12660000
opls_145-255    C    0.12498979    0.98989004    0.89076983    -0.12450000
opls_145-256    C    0.01577010    0.97859998    0.83834020    -0.11730000
opls_145-257    C    0.10017024    0.01317007    0.93570008    -0.13740000
opls_145-258    C    0.99092989    0.00213994    0.88154032    -0.13740000
opls_700-259    C    0.03222019    0.01955003    0.93320006    0.04320000
opls_145-260    C    0.71325976    0.31275991    0.17641010    0.05670000
opls_145-261    C    0.77505006    0.30622009    0.15557002    -0.18470000
opls_145-262    C    0.67196995    0.29341990    0.22840027    -0.15850000
opls_145-263    C    0.80537987    0.27963994    0.18551999    -0.03320000
opls_145-264    C    0.69385994    0.26828001    0.25836015    -0.04730000
opls_166-265    C    0.76360984    0.25990991    0.23723987    0.31720000
opls_142-266    C    0.86916980    0.27581994    0.16709997    0.07940000
opls_516-267    C    0.64828994    0.24823004    0.31144007    0.24570000
opls_135-268    C    0.63686989    0.22119002    0.25728032    -0.46860000
opls_135-269    C    0.67928006    0.24122992    0.40229978    -0.46870000
opls_135-270    C    0.57940012    0.26059994    0.33130010    -0.46870000
opls_137-271    C    0.97813018    0.25211004    0.20562983    0.10350000
opls_137-272    C    0.00536019    0.22138009    0.21079970    0.10440000
opls_166-273    C    0.85424008    0.16468995    0.32358990    0.30780000
opls_142-274    C    0.96226020    0.17262996    0.24841031    0.08440000
opls_145-275    C    0.81787009    0.14394009    0.38020011    -0.04750000
opls_145-276    C    0.91587983    0.15534009    0.27953991    -0.02070000
opls_145-277    C    0.83479007    0.11655998    0.37341973    -0.16320000
opls_516-278    C    0.76369004    0.15378990    0.44546025    0.24580000
opls_145-279    C    0.92871988    0.12481008    0.27591975    -0.18070000
opls_145-280    C    0.88996994    0.10669990    0.31836980    0.05710000
opls_135-281    C    0.79034979    0.17781995    0.50431010    -0.46870000
opls_135-282    C    0.70333007    0.16399992    0.39293017    -0.46870000
opls_135-283    C    0.73969022    0.13042008    0.50909998    -0.46860000
opls_261-284    C    0.68592003    0.33922992    0.14799001    -0.09130000
opls_261-285    C    0.90604018    0.07724007    0.32032990    -0.08140000
opls_261-286    C    0.91908000    0.05270000    0.32887014    -0.08270000
opls_261-287    C    0.66184984    0.36116996    0.12449990    -0.08740000
opls_700-288    C    0.63021025    0.38676007    0.09643006    0.11400000
opls_145-289    C    0.63176014    0.39482009    0.00764015    -0.12450000
opls_145-290    C    0.59200990    0.40200000    0.15623022    -0.12460000
opls_145-291    C    0.59317995    0.41723994    0.97814022    -0.13740000
opls_145-292    C    0.55298983    0.42428999    0.12683999    -0.13630000
opls_700-293    C    0.55281024    0.43242994    0.03701981    0.04320000
opls_700-294    C    0.93501985    0.02392998    0.34839974    0.12400000
opls_145-295    C    0.00012990    0.01479999    0.34276991    -0.12100000
opls_145-296    C    0.88792997    0.00672990    0.38814029    -0.12470000
opls_145-297    C    0.01892009    0.98942010    0.38141013    -0.13730000
opls_145-298    C    0.90676002    0.98162002    0.42873003    -0.13730000
opls_700-299    C    0.97332008    0.97292998    0.42909020    0.06230000
opls_145-300    C    0.39132991    0.60702991    0.18109028    0.05900000
opls_145-301    C    0.43059993    0.62522003    0.22271030    -0.17910000
opls_145-302    C    0.33538002    0.61678006    0.12677985    -0.15790000
opls_145-303    C    0.41725997    0.65572990    0.21943973    -0.03150000
opls_145-304    C    0.31833998    0.64414003    0.11980981    -0.04730000
opls_166-305    C    0.35492007    0.66492996    0.17633014    0.31590000
opls_142-306    C    0.46372989    0.67312005    0.25011995    0.07940000
opls_516-307    C    0.26391982    0.65390990    0.05430977    0.24590000
opls_135-308    C    0.28996994    0.67820996    0.99628996    -0.46850000
opls_135-309    C    0.20337976    0.66375006    0.10659005    -0.46870000
opls_135-310    C    0.24056013    0.63059001    0.98986975    -0.46870000
opls_137-311    C    0.50611005    0.72182990    0.28929018    0.10420000
opls_137-312    C    0.47866010    0.75250992    0.29454001    0.10350000
opls_166-313    C    0.26348978    0.75973998    0.26503017    0.31050000
opls_142-314    C    0.36977991    0.77605995    0.33321989    0.07930000
opls_145-315    C    0.19327983    0.76784993    0.24504986    -0.04750000
opls_145-316    C    0.30567017    0.77966995    0.31577000    -0.03300000
opls_145-317    C    0.17138984    0.79296002    0.27507980    -0.15560000
opls_516-318    C    0.14754009    0.74773009    0.19205982    0.24580000
opls_145-319    C    0.27538022    0.80622995    0.34566974    -0.17850000
opls_145-320    C    0.21318989    0.81255998    0.32579980    0.05870000
opls_135-321    C    0.13775014    0.72036006    0.24501021    -0.46860000
opls_135-322    C    0.17749989    0.74132999    0.10045996    -0.46860000
opls_135-323    C    0.07793977    0.75973998    0.17400987    -0.46860000
opls_261-324    C    0.40750988    0.57760008    0.17902973    -0.08270000
opls_261-325    C    0.18603024    0.83910991    0.35362975    -0.08440000
opls_261-326    C    0.16212981    0.86110996    0.37666982    -0.08090000
opls_261-327    C    0.42041980    0.55306001    0.17035997    -0.12070000
opls_700-328    C    0.43597981    0.52427006    0.15073983    0.12650000
opls_145-329    C    0.50092010    0.51493992    0.15724992    -0.12080000
opls_145-330    C    0.38866999    0.50721999    0.11036023    -0.12290000
opls_145-331    C    0.51932011    0.48950003    0.11895995    -0.13660000
opls_145-332    C    0.40713003    0.48202010    0.07020995    -0.13720000
opls_700-333    C    0.47353018    0.47312005    0.07074987    0.07680000
opls_700-334    C    0.13062011    0.88673993    0.40439998    0.12310000
opls_145-335    C    0.13204011    0.89473008    0.49325993    -0.12500000
opls_145-336    C    0.09243994    0.90201007    0.34427996    -0.12320000
opls_145-337    C    0.09318979    0.91705007    0.52252989    -0.13740000
opls_145-338    C    0.05319993    0.92421006    0.37343030    -0.13760000
opls_700-339    C    0.05279991    0.93224994    0.46332979    0.04320000
opls_136-340    C    0.98789012    0.27011008    0.86611992    -0.21350000
opls_136-341    C    0.91649979    0.26140997    0.88020011    -0.15040000
opls_136-342    C    0.91216007    0.23116990    0.91440004    -0.15140000
opls_136-343    C    0.96702011    0.21176002    0.87919032    -0.21350000
opls_136-344    C    0.14911016    0.32437999    0.51733028    -0.21600000
opls_136-345    C    0.09555991    0.31114006    0.57475994    -0.14800000
opls_136-346    C    0.10357018    0.27914000    0.58336032    -0.14800000
opls_136-347    C    0.14769016    0.26623008    0.51213000    -0.21360000
opls_136-348    C    0.46641983    0.71213010    0.62045017    -0.21350000
opls_136-349    C    0.41166016    0.73152005    0.58437011    -0.15170000
opls_136-350    C    0.41567022    0.76170998    0.61903991    -0.15030000
opls_136-351    C    0.48699019    0.77053996    0.63380012    -0.21180000
opls_136-352    C    0.65023987    0.76512990    0.98869012    -0.21360000
opls_136-353    C    0.60626012    0.77745993    0.91590018    -0.14810000
opls_136-354    C    0.59545018    0.80929993    0.92451972    -0.14760000
opls_136-355    C    0.64801982    0.82331002    0.98228973    -0.21620000
opls_146-356    H    0.27438976    0.39876009    0.36133995    0.10930000
opls_146-357    H    0.44041006    0.38441998    0.19795003    0.09650000
opls_144-358    H    0.20669015    0.36258001    0.40415017    0.10050000
opls_140-359    H    0.10882016    0.32233006    0.38461000    0.08590000
opls_140-360    H    0.08122998    0.27665997    0.40552013    0.08590000
opls_144-361    H    0.12671977    0.22544996    0.37214031    0.10140000
opls_146-362    H    0.27592982    0.17578008    0.08686021    0.11050000
opls_146-363    H    0.14161996    0.18327008    0.29982025    0.10710000
opls_140-364    H    0.42012015    0.29219992    0.25335021    0.11860000
opls_140-365    H    0.49154985    0.31323993    0.27010025    0.10730000
opls_140-366    H    0.48690999    0.28959003    0.17710003    0.16300000
opls_140-367    H    0.34912000    0.30266003    0.10478988    0.12510000
opls_140-368    H    0.42250011    0.30212001    0.04057983    0.16250000
opls_140-369    H    0.37054994    0.33268002    0.04034986    0.16340000
opls_140-370    H    0.52086017    0.32884995    0.08143987    0.16260000
opls_140-371    H    0.52157017    0.35217991    0.17360014    0.16020000
opls_140-372    H    0.47412997    0.36067001    0.07537983    0.16020000
opls_140-373    H    0.25001993    0.24393002    0.98460008    0.10730000
opls_140-374    H    0.32689002    0.26241994    0.97424976    0.16280000
opls_140-375    H    0.27322020    0.26937998    0.06538967    0.09840000
opls_140-376    H    0.42513002    0.24872999    0.07436013    0.16250000
opls_140-377    H    0.41286023    0.22353996    0.16156002    0.10750000
opls_140-378    H    0.37684007    0.25772004    0.16791018    0.11810000
opls_140-379    H    0.37786006    0.18962990    0.03912992    0.10770000
opls_140-380    H    0.38830982    0.21728001    0.96059979    0.16320000
opls_140-381    H    0.31126998    0.19920990    0.96467991    0.10730000
opls_146-382    H    0.32424977    0.48476006    0.39324011    0.11020000
opls_146-383    H    0.51945985    0.46468995    0.30477006    0.11580000
opls_146-384    H    0.36632979    0.52480001    0.47399996    0.11100000
opls_146-385    H    0.56270007    0.50574993    0.38127003    0.11250000
opls_146-386    H    0.08211022    0.09246993    0.24101005    0.11020000
opls_146-387    H    0.15702006    0.11150008    0.98224017    0.11220000
opls_146-388    H    0.01457988    0.05524002    0.17922006    0.09490000
opls_146-389    H    0.09117984    0.07360007    0.91910005    0.11200000
opls_146-390    H    0.64340013    0.68276992    0.20349989    0.10490000
opls_146-391    H    0.77767013    0.67619003    0.41801030    0.10880000
opls_144-392    H    0.62800004    0.72465000    0.12992023    0.10160000
opls_140-393    H    0.58200985    0.77533993    0.09301013    0.08970000
opls_140-394    H    0.60868977    0.82117009    0.11523999    0.09000000
opls_144-395    H    0.70621977    0.86179998    0.09372980    0.11170000
opls_146-396    H    0.93985013    0.88479993    0.30113998    0.11720000
opls_146-397    H    0.77333976    0.89831994    0.13637018    0.10630000
opls_140-398    H    0.77545009    0.76948992    0.43736015    0.10030000
opls_140-399    H    0.75394978    0.74405002    0.51882976    0.16250000
opls_140-400    H    0.83065996    0.76277995    0.52759997    0.10730000
opls_140-401    H    0.87799979    0.75826992    0.33384968    0.12030000
opls_140-402    H    0.92776977    0.74916993    0.42617979    0.10730000
opls_140-403    H    0.91436978    0.72410998    0.33878033    0.16280000
opls_140-404    H    0.89369019    0.71767003    0.53943986    0.10750000
opls_140-405    H    0.81639990    0.69968992    0.53838976    0.16250000
opls_140-406    H    0.88110008    0.68989991    0.46187987    0.16020000
opls_140-407    H    0.99168024    0.81359008    0.23053020    0.16240000
opls_140-408    H    0.98781976    0.79017999    0.32409017    0.16020000
opls_140-409    H    0.92067025    0.79237993    0.24761993    0.12170000
opls_140-410    H    0.92352009    0.80264996    0.45981998    0.10770000
opls_140-411    H    0.87165997    0.83322004    0.45989003    0.16370000
opls_140-412    H    0.84970995    0.80317991    0.39580026    0.11960000
opls_140-413    H    0.97437992    0.86139004    0.42418004    0.16250000
opls_140-414    H    0.02148013    0.82965998    0.41890972    0.10750000
opls_140-415    H    0.02152982    0.85277007    0.32623002    0.16380000
opls_146-416    H    0.58499009    0.59246993    0.26139018    0.11310000
opls_146-417    H    0.65665005    0.61164001    0.52236996    0.10760000
opls_146-418    H    0.51673990    0.55525009    0.32115993    0.11270000
opls_146-419    H    0.59008015    0.57375008    0.58356981    0.11200000
opls_146-420    H    0.82337002    0.98464006    0.10245970    0.11340000
opls_146-421    H    0.01784992    0.96467002    0.19582009    0.10990000
opls_146-422    H    0.86612018    0.02466007    0.02250015    0.11280000
opls_146-423    H    0.06165992    0.00571007    0.12029025    0.11260000
opls_146-424    H    0.19623005    0.32096008    0.88310985    0.10750000
opls_146-425    H    0.37758009    0.30052995    0.75933029    0.11880000
opls_144-426    H    0.10542022    0.29231006    0.86821020    0.08920000
opls_140-427    H    0.01127982    0.26211006    0.72950984    0.09000000
opls_140-428    H    0.95375986    0.22081993    0.74063997    0.06990000
opls_144-429    H    0.99172009    0.16361998    0.77355983    0.11320000
opls_146-430    H    0.19064008    0.10048002    0.58991997    0.09960000
opls_146-431    H    0.02927981    0.11701000    0.76062028    0.11080000
opls_140-432    H    0.31661984    0.21078991    0.76171003    0.09830000
opls_140-433    H    0.38999011    0.22618992    0.80476014    0.16030000
opls_140-434    H    0.39308007    0.20588001    0.70476014    0.16250000
opls_140-435    H    0.27320003    0.23017000    0.60296988    0.11900000
opls_140-436    H    0.35363980    0.22737004    0.55866018    0.16250000
opls_140-437    H    0.31289024    0.26080995    0.55921993    0.16020000
opls_140-438    H    0.45038994    0.24576995    0.62858993    0.16020000
opls_140-439    H    0.44818022    0.26417007    0.73084015    0.16370000
opls_140-440    H    0.41676991    0.28055005    0.63096967    0.16030000
opls_140-441    H    0.16384995    0.17107998    0.46145031    0.10770000
opls_140-442    H    0.24628984    0.18390996    0.44479015    0.16240000
opls_140-443    H    0.19866020    0.19705003    0.53381994    0.12190000
opls_140-444    H    0.33633013    0.17112005    0.56189970    0.16240000
opls_140-445    H    0.31639990    0.14686006    0.64933022    0.10750000
opls_140-446    H    0.28381019    0.18177002    0.65026996    0.11570000
opls_140-447    H    0.28570993    0.11332007    0.52747970    0.10750000
opls_140-448    H    0.29638996    0.13886990    0.44263972    0.16250000
opls_140-449    H    0.21840985    0.12153996    0.45264970    0.10740000
opls_146-450    H    0.33936990    0.38306007    0.03963019    0.11500000
opls_146-451    H    0.41053981    0.39566998    0.77510028    0.10760000
opls_146-452    H    0.40726977    0.42206991    0.09172014    0.11440000
opls_146-453    H    0.47974011    0.43399000    0.82606018    0.11780000
opls_146-454    H    0.96261003    0.02809006    0.68644982    0.11170000
opls_146-455    H    0.16248997    0.01383995    0.60563974    0.10880000
opls_146-456    H    0.92933984    0.98404004    0.61856013    0.11210000
opls_146-457    H    0.13001983    0.97067003    0.53312010    0.11460000
opls_146-458    H    0.52671977    0.61752002    0.74156980    0.10840000
opls_146-459    H    0.69040981    0.60064995    0.90945023    0.11470000
opls_144-460    H    0.48978001    0.66425000    0.72865007    0.10310000
opls_140-461    H    0.45291996    0.72137002    0.75877980    0.09260000
opls_140-462    H    0.51129016    0.76250994    0.77035997    0.07090000
opls_144-463    H    0.60456999    0.79270008    0.63226032    0.09230000
opls_146-464    H    0.87842983    0.79991000    0.73654002    0.11450000
opls_146-465    H    0.69551021    0.82114994    0.61660003    0.10580000
opls_140-466    H    0.70025979    0.69744004    0.96497994    0.12260000
opls_140-467    H    0.66368020    0.67189001    0.03699998    0.16240000
opls_140-468    H    0.74653979    0.68408997    0.05535987    0.10730000
opls_140-469    H    0.78406015    0.68150001    0.84981000    0.11840000
opls_140-470    H    0.83652006    0.67076990    0.93873010    0.10730000
opls_140-471    H    0.81584981    0.64644004    0.85162009    0.16280000
opls_140-472    H    0.79543001    0.63899998    0.05891990    0.10570000
opls_140-473    H    0.71720979    0.62186997    0.04770981    0.16250000
opls_140-474    H    0.78478983    0.61337001    0.97429999    0.16250000
opls_140-475    H    0.88884023    0.72487008    0.69267970    0.16370000
opls_140-476    H    0.89191986    0.70500998    0.79348000    0.10770000
opls_140-477    H    0.81524019    0.71018003    0.73670986    0.09960000
opls_140-478    H    0.85560006    0.72753997    0.93886029    0.10730000
opls_140-479    H    0.81553983    0.76113996    0.93707003    0.16280000
opls_140-480    H    0.77467022    0.73042994    0.89529008    0.09840000
opls_140-481    H    0.91957006    0.77978995    0.86338992    0.16030000
opls_140-482    H    0.95205989    0.74483005    0.86573993    0.10730000
opls_140-483    H    0.94862994    0.76303003    0.76313021    0.09820000
opls_146-484    H    0.46165008    0.52812992    0.81311005    0.11020000
opls_146-485    H    0.66158021    0.51451005    0.89663030    0.10990000
opls_146-486    H    0.42902002    0.48396997    0.88045982    0.11220000
opls_146-487    H    0.62972018    0.47115991    0.96843027    0.11480000
opls_146-488    H    0.83902007    0.88299000    0.45923975    0.11070000
opls_146-489    H    0.90997988    0.89572998    0.72447016    0.11310000
opls_146-490    H    0.90738982    0.92180997    0.40758001    0.11500000
opls_146-491    H    0.97952017    0.93393000    0.67394974    0.11190000
opls_140-492    H    0.98515984    0.26792000    0.07050998    0.10940000
opls_140-493    H    0.01080009    0.29258007    0.15343017    0.08060000
opls_140-494    H    0.05368015    0.19028006    0.12501999    0.09640000
opls_140-495    H    0.99162021    0.21093992    0.07333977    0.10120000
opls_140-496    H    0.13658009    0.22251007    0.10383032    0.12190000
opls_140-497    H    0.08616998    0.23141998    0.01232033    0.11680000
opls_140-498    H    0.11073022    0.26342004    0.18318982    0.08060000
opls_140-499    H    0.10703999    0.27578994    0.07148012    0.10180000
opls_140-500    H    0.80215018    0.32099008    0.45066978    0.11330000
opls_140-501    H    0.85985023    0.34734994    0.48544003    0.11200000
opls_140-502    H    0.95322010    0.31595010    0.45480012    0.08060000
opls_140-503    H    0.90332023    0.32084007    0.35843020    0.10470000
opls_140-504    H    0.94582979    0.26915991    0.41987986    0.10480000
opls_140-505    H    0.87481979    0.27410002    0.35140002    0.10230000
opls_140-506    H    0.86146999    0.24328007    0.48918973    0.10540000
opls_140-507    H    0.79990012    0.26940999    0.46977974    0.10180000
opls_140-508    H    0.49213980    0.71126007    0.42651022    0.10750000
opls_140-509    H    0.55425976    0.69066000    0.37543996    0.12350000
opls_140-510    H    0.63717003    0.72280001    0.39847012    0.10230000
opls_140-511    H    0.58616014    0.73185992    0.48887978    0.11680000
opls_140-512    H    0.51192980    0.79300009    0.34627971    0.10430000
opls_140-513    H    0.48613012    0.76850009    0.42941005    0.08850000
opls_140-514    H    0.61154995    0.76354991    0.31775983    0.09810000
opls_140-515    H    0.60808998    0.77610002    0.42926995    0.11810000
opls_140-516    H    0.29728989    0.76873003    0.02787026    0.09640000
opls_140-517    H    0.35783978    0.74212009    0.00967030    0.10940000
opls_140-518    H    0.44233981    0.76674996    0.08279991    0.10470000
opls_140-519    H    0.37066016    0.77282990    0.14850019    0.13100000
opls_140-520    H    0.45363980    0.81329993    0.04609005    0.09650000
opls_140-521    H    0.40441992    0.81902994    0.14225973    0.10470000
opls_140-522    H    0.36258986    0.84615996    0.01521025    0.11200000
opls_140-523    H    0.30303977    0.82052999    0.04933022    0.10470000
opls_146-524    H    0.72561024    0.39876009    0.63866005    0.10940000
opls_146-525    H    0.55958994    0.38441998    0.80204997    0.09650000
opls_144-526    H    0.79330985    0.36258001    0.59584983    0.10050000
opls_140-527    H    0.89117984    0.32233006    0.61539000    0.08590000
opls_140-528    H    0.91877002    0.27665997    0.59447987    0.08590000
opls_144-529    H    0.87328023    0.22544996    0.62785969    0.10140000
opls_146-530    H    0.72407018    0.17578008    0.91313979    0.11050000
opls_146-531    H    0.85838004    0.18327008    0.70017975    0.10710000
opls_140-532    H    0.57987985    0.29219992    0.74664979    0.11860000
opls_140-533    H    0.50845015    0.31323993    0.72989975    0.10730000
opls_140-534    H    0.51309001    0.28959003    0.82289997    0.16300000
opls_140-535    H    0.65088000    0.30266003    0.89521012    0.12510000
opls_140-536    H    0.57749989    0.30212001    0.95942017    0.16260000
opls_140-537    H    0.62945006    0.33268002    0.95965014    0.16330000
opls_140-538    H    0.47913983    0.32884995    0.91856013    0.16250000
opls_140-539    H    0.47842983    0.35217991    0.82639986    0.16020000
opls_140-540    H    0.52587003    0.36067001    0.92462017    0.16020000
opls_140-541    H    0.74998007    0.24393002    0.01539992    0.10730000
opls_140-542    H    0.67310998    0.26241994    0.02575024    0.16280000
opls_140-543    H    0.72677980    0.26937998    0.93461033    0.09830000
opls_140-544    H    0.57486998    0.24872999    0.92563987    0.16250000
opls_140-545    H    0.58713977    0.22353996    0.83843998    0.10750000
opls_140-546    H    0.62315993    0.25772004    0.83208982    0.11820000
opls_140-547    H    0.62213994    0.18962990    0.96087008    0.10770000
opls_140-548    H    0.61169018    0.21728001    0.03940021    0.16320000
opls_140-549    H    0.68873002    0.19920990    0.03532009    0.10730000
opls_146-550    H    0.67575023    0.48476006    0.60675989    0.11020000
opls_146-551    H    0.48054015    0.46468995    0.69522994    0.11590000
opls_146-552    H    0.63367021    0.52480001    0.52600004    0.11100000
opls_146-553    H    0.43729993    0.50574993    0.61872997    0.11250000
opls_146-554    H    0.91788978    0.09246993    0.75898995    0.11020000
opls_146-555    H    0.84297994    0.11150008    0.01775983    0.11220000
opls_146-556    H    0.98542012    0.05524002    0.82077994    0.09490000
opls_146-557    H    0.90882016    0.07360007    0.08089995    0.11200000
opls_146-558    H    0.35659987    0.68276992    0.79650011    0.10490000
opls_146-559    H    0.22232987    0.67619003    0.58198970    0.10880000
opls_144-560    H    0.37199996    0.72465000    0.87007977    0.10150000
opls_140-561    H    0.41799015    0.77533993    0.90698987    0.08970000
opls_140-562    H    0.39131023    0.82117009    0.88476001    0.09000000
opls_144-563    H    0.29378023    0.86179998    0.90627020    0.11170000
opls_146-564    H    0.06014987    0.88479993    0.69886002    0.11720000
opls_146-565    H    0.22666024    0.89831994    0.86362982    0.10620000
opls_140-566    H    0.22454991    0.76948992    0.56263985    0.10030000
opls_140-567    H    0.24605022    0.74405002    0.48117024    0.16250000
opls_140-568    H    0.16934004    0.76277995    0.47240003    0.10730000
opls_140-569    H    0.12200021    0.75826992    0.66615032    0.12030000
opls_140-570    H    0.07223023    0.74916993    0.57382021    0.10730000
opls_140-571    H    0.08563022    0.72410998    0.66121967    0.16290000
opls_140-572    H    0.10630981    0.71767003    0.46056014    0.10750000
opls_140-573    H    0.18360010    0.69968992    0.46161024    0.16250000
opls_140-574    H    0.11889992    0.68989991    0.53812013    0.16020000
opls_140-575    H    0.00831976    0.81359008    0.76946980    0.16240000
opls_140-576    H    0.01218024    0.79017999    0.67590983    0.16020000
opls_140-577    H    0.07932975    0.79237993    0.75238007    0.12170000
opls_140-578    H    0.07647991    0.80264996    0.54018002    0.10770000
opls_140-579    H    0.12834003    0.83322004    0.54010997    0.16370000
opls_140-580    H    0.15029005    0.80317991    0.60419974    0.11960000
opls_140-581    H    0.02562008    0.86139004    0.57581996    0.16240000
opls_140-582    H    0.97851987    0.82965998    0.58109028    0.10750000
opls_140-583    H    0.97847018    0.85277007    0.67376998    0.16360000
opls_146-584    H    0.41500991    0.59246993    0.73860982    0.11310000
opls_146-585    H    0.34334995    0.61164001    0.47763004    0.10750000
opls_146-586    H    0.48326010    0.55525009    0.67884007    0.11270000
opls_146-587    H    0.40991985    0.57375008    0.41643019    0.11200000
opls_146-588    H    0.17662998    0.98464006    0.89754030    0.11340000
opls_146-589    H    0.98215008    0.96467002    0.80417991    0.10990000
opls_146-590    H    0.13387982    0.02466007    0.97749985    0.11280000
opls_146-591    H    0.93834008    0.00571007    0.87970975    0.11250000
opls_146-592    H    0.80376995    0.32096008    0.11689015    0.10750000
opls_146-593    H    0.62241991    0.30052995    0.24066971    0.11890000
opls_144-594    H    0.89457978    0.29231006    0.13178980    0.08920000
opls_140-595    H    0.98872018    0.26211006    0.27049016    0.09000000
opls_140-596    H    0.04624014    0.22081993    0.25936003    0.06990000
opls_144-597    H    0.00827991    0.16361998    0.22644017    0.11320000
opls_146-598    H    0.80935992    0.10048002    0.41008003    0.09960000
opls_146-599    H    0.97072019    0.11701000    0.23937972    0.11080000
opls_140-600    H    0.68338016    0.21078991    0.23828997    0.09830000
opls_140-601    H    0.61000989    0.22618992    0.19523986    0.16030000
opls_140-602    H    0.60691993    0.20588001    0.29523986    0.16250000
opls_140-603    H    0.72679997    0.23017000    0.39703012    0.11900000
opls_140-604    H    0.64636020    0.22737004    0.44133982    0.16250000
opls_140-605    H    0.68710976    0.26080995    0.44078007    0.16020000
opls_140-606    H    0.54961006    0.24576995    0.37141007    0.16020000
opls_140-607    H    0.55181978    0.26417007    0.26915985    0.16370000
opls_140-608    H    0.58323009    0.28055005    0.36903033    0.16030000
opls_140-609    H    0.83615005    0.17107998    0.53854969    0.10770000
opls_140-610    H    0.75371016    0.18390996    0.55520985    0.16240000
opls_140-611    H    0.80133980    0.19705003    0.46618006    0.12190000
opls_140-612    H    0.66366987    0.17112005    0.43810030    0.16240000
opls_140-613    H    0.68360010    0.14686006    0.35066978    0.10750000
opls_140-614    H    0.71618981    0.18177002    0.34973004    0.11570000
opls_140-615    H    0.71429007    0.11332007    0.47252030    0.10750000
opls_140-616    H    0.70361004    0.13886990    0.55736028    0.16250000
opls_140-617    H    0.78159015    0.12153996    0.54735030    0.10730000
opls_146-618    H    0.66063010    0.38306007    0.96036981    0.11500000
opls_146-619    H    0.58946019    0.39566998    0.22489972    0.10760000
opls_146-620    H    0.59273023    0.42206991    0.90827986    0.11430000
opls_146-621    H    0.52025989    0.43399000    0.17393982    0.11780000
opls_146-622    H    0.03738997    0.02809006    0.31355018    0.11170000
opls_146-623    H    0.83751003    0.01383995    0.39436026    0.10880000
opls_146-624    H    0.07066016    0.98404004    0.38143987    0.11210000
opls_146-625    H    0.86998017    0.97067003    0.46687990    0.11460000
opls_146-626    H    0.47328023    0.61752002    0.25843020    0.10840000
opls_146-627    H    0.30959019    0.60064995    0.09054977    0.11460000
opls_144-628    H    0.51021999    0.66425000    0.27134993    0.10310000
opls_140-629    H    0.54708004    0.72137002    0.24122020    0.09270000
opls_140-630    H    0.48870984    0.76250994    0.22964003    0.07090000
opls_144-631    H    0.39543001    0.79270008    0.36773968    0.09230000
opls_146-632    H    0.12157017    0.79991000    0.26345998    0.11450000
opls_146-633    H    0.30448979    0.82114994    0.38339997    0.10580000
opls_140-634    H    0.29974021    0.69744004    0.03502006    0.12250000
opls_140-635    H    0.33631980    0.67189001    0.96300002    0.16240000
opls_140-636    H    0.25346021    0.68408997    0.94464013    0.10740000
opls_140-637    H    0.21593985    0.68150001    0.15019000    0.11840000
opls_140-638    H    0.16347994    0.67076990    0.06126990    0.10730000
opls_140-639    H    0.18415019    0.64644004    0.14837991    0.16280000
opls_140-640    H    0.20456999    0.63899998    0.94108010    0.10570000
opls_140-641    H    0.28279021    0.62186997    0.95229019    0.16250000
opls_140-642    H    0.21521017    0.61337001    0.02570001    0.16250000
opls_140-643    H    0.11115977    0.72487008    0.30732030    0.16370000
opls_140-644    H    0.10808014    0.70500998    0.20652000    0.10770000
opls_140-645    H    0.18475981    0.71018003    0.26329014    0.09960000
opls_140-646    H    0.14439994    0.72753997    0.06113971    0.10740000
opls_140-647    H    0.18446017    0.76113996    0.06292997    0.16280000
opls_140-648    H    0.22532978    0.73042994    0.10470992    0.09840000
opls_140-649    H    0.08042994    0.77978995    0.13661008    0.16030000
opls_140-650    H    0.04794011    0.74483005    0.13426007    0.10730000
opls_140-651    H    0.05137006    0.76303003    0.23686979    0.09820000
opls_146-652    H    0.53834992    0.52812992    0.18688995    0.11020000
opls_146-653    H    0.33841979    0.51451005    0.10336970    0.10990000
opls_146-654    H    0.57097998    0.48396997    0.11954018    0.11230000
opls_146-655    H    0.37027982    0.47115991    0.03156973    0.11480000
opls_146-656    H    0.16097993    0.88299000    0.54076025    0.11060000
opls_146-657    H    0.09002012    0.89572998    0.27552984    0.11310000
opls_146-658    H    0.09261018    0.92180997    0.59241999    0.11500000
opls_146-659    H    0.02047983    0.93393000    0.32605026    0.11190000
opls_140-660    H    0.01484016    0.26792000    0.92949002    0.10940000
opls_140-661    H    0.98919991    0.29258007    0.84656983    0.08060000
opls_140-662    H    0.94631985    0.19028006    0.87498001    0.09640000
opls_140-663    H    0.00837979    0.21093992    0.92666023    0.10110000
opls_140-664    H    0.86341991    0.22251007    0.89616968    0.12190000
opls_140-665    H    0.91383002    0.23141998    0.98767967    0.11680000
opls_140-666    H    0.88926978    0.26342004    0.81681018    0.08060000
opls_140-667    H    0.89296001    0.27578994    0.92851988    0.10180000
opls_140-668    H    0.19784982    0.32099008    0.54933022    0.11330000
opls_140-669    H    0.14014977    0.34734994    0.51455997    0.11200000
opls_140-670    H    0.04677990    0.31595010    0.54519988    0.08060000
opls_140-671    H    0.09667977    0.32084007    0.64156980    0.10470000
opls_140-672    H    0.05417021    0.26915991    0.58012014    0.10470000
opls_140-673    H    0.12518021    0.27410002    0.64859998    0.10230000
opls_140-674    H    0.13853001    0.24328007    0.51081027    0.10540000
opls_140-675    H    0.20009988    0.26940999    0.53022026    0.10180000
opls_140-676    H    0.50786020    0.71126007    0.57348978    0.10740000
opls_140-677    H    0.44574024    0.69066000    0.62456004    0.12350000
opls_140-678    H    0.36282997    0.72280001    0.60152988    0.10230000
opls_140-679    H    0.41383986    0.73185992    0.51112022    0.11690000
opls_140-680    H    0.48807020    0.79300009    0.65372029    0.10430000
opls_140-681    H    0.51386988    0.76850009    0.57058995    0.08850000
opls_140-682    H    0.38845005    0.76354991    0.68224017    0.09810000
opls_140-683    H    0.39191002    0.77610002    0.57073005    0.11810000
opls_140-684    H    0.70271011    0.76873003    0.97212974    0.09640000
opls_140-685    H    0.64216022    0.74212009    0.99032970    0.10940000
opls_140-686    H    0.55766019    0.76674996    0.91720009    0.10470000
opls_140-687    H    0.62933984    0.77282990    0.85149981    0.13100000
opls_140-688    H    0.54636020    0.81329993    0.95390995    0.09640000
opls_140-689    H    0.59558008    0.81902994    0.85774027    0.10470000
opls_140-690    H    0.63741014    0.84615996    0.98478975    0.11200000
opls_140-691    H    0.69696023    0.82052999    0.95066978    0.10470000
opls_167-692    O    0.31090982    0.31049997    0.25185998    -0.53860000
opls_167-693    O    0.26866005    0.25894002    0.22264025    -0.53860000
opls_167-694    O    0.76964018    0.75892995    0.27946986    -0.53850000
opls_167-695    O    0.81126014    0.81046997    0.24852001    -0.53850000
opls_167-696    O    0.21635021    0.23722005    0.73615012    -0.53870000
opls_167-697    O    0.16777981    0.18846006    0.68432979    -0.53870000
opls_167-698    O    0.66752001    0.68860000    0.81505032    -0.53870000
opls_167-699    O    0.71641024    0.73710005    0.76184022    -0.53870000
opls_167-700    O    0.68909018    0.31049997    0.74814002    -0.53860000
opls_167-701    O    0.73133995    0.25894002    0.77735975    -0.53870000
opls_167-702    O    0.23035982    0.75892995    0.72053014    -0.53850000
opls_167-703    O    0.18873986    0.81046997    0.75147999    -0.53850000
opls_167-704    O    0.78364979    0.23722005    0.26384988    -0.53870000
opls_167-705    O    0.83222019    0.18846006    0.31567021    -0.53860000
opls_167-706    O    0.33247999    0.68860000    0.18494968    -0.53870000
opls_167-707    O    0.28358976    0.73710005    0.23815978    -0.53870000
opls_900-708    N    0.21129016    0.31821005    0.37738024    -0.40180000
opls_900-709    N    0.17286003    0.26560005    0.35273032    -0.39810000
opls_900-710    N    0.67345982    0.76498010    0.14872025    -0.39810000
opls_900-711    N    0.71133001    0.81753995    0.12219021    -0.40180000
opls_900-712    N    0.09379007    0.25175003    0.80598008    -0.40180000
opls_900-713    N    0.04640989    0.20231009    0.75784006    -0.40180000
opls_900-714    N    0.54548979    0.70273996    0.74288027    -0.40180000
opls_900-715    N    0.59318979    0.75200997    0.69357979    -0.40170000
opls_900-716    N    0.78870984    0.31821005    0.62261976    -0.40180000
opls_900-717    N    0.82713997    0.26560005    0.64726968    -0.39810000
opls_900-718    N    0.32654018    0.76498010    0.85127975    -0.39810000
opls_900-719    N    0.28866999    0.81753995    0.87780979    -0.40180000
opls_900-720    N    0.90620993    0.25175003    0.19401992    -0.40180000
opls_900-721    N    0.95359011    0.20231009    0.24215994    -0.40160000
opls_900-722    N    0.45451021    0.70273996    0.25711973    -0.40180000
opls_900-723    N    0.40681021    0.75200997    0.30642021    -0.40180000
Zn2+-724    Zn    0.24244018    0.28819991    0.29946999    0.72170000
Zn2+-725    Zn    0.74293024    0.78787997    0.20144000    0.72180000
Zn2+-726    Zn    0.13331004    0.21962010    0.74627971    0.72170000
Zn2+-727    Zn    0.63285983    0.71979003    0.75312023    0.72180000
Zn2+-728    Zn    0.75755982    0.28819991    0.70053001    0.72190000
Zn2+-729    Zn    0.25706976    0.78787997    0.79856000    0.72170000
Zn2+-730    Zn    0.86668996    0.21962010    0.25372029    0.72180000
Zn2+-731    Zn    0.36714017    0.71979003    0.24687977    0.72170000
