#======================================================================
# Crystal Data Generated By AuToFF
#----------------------------------------------------------------------

data_AuToFF_phase_1

_cell_length_a                         29.4360
_cell_length_b                         29.4360
_cell_length_c                         4.9513
_cell_angle_alpha                      90.00
_cell_angle_beta                       90.00
_cell_angle_gamma                      90.00
_symmetry_space_group_name_H-M_alt     'P 1'
_symmetry_space_group_IT_number        1

loop_
_space_group_symop_operation_xyz
   'x, y, z'

loop_
   _atom_site_label
   _atom_site_type_symbol
   _atom_site_fract_x
   _atom_site_fract_y
   _atom_site_fract_z
   _atom_site_charge
opls_700-0    C    0.49454987    0.66222007    0.61981096    0.07240000
opls_145-1    C    0.46876987    0.68720988    0.43189061    -0.07970000
opls_145-2    C    0.46412013    0.73421015    0.45710016    -0.11850000
opls_145-3    C    0.51623013    0.73367985    0.83450003    -0.14320000
opls_145-4    C    0.51834998    0.68607012    0.82152970    -0.08610000
opls_145-5    C    0.48814003    0.75782002    0.65598934    0.22490000
opls_145-6    C    0.51075010    0.23609016    0.59731990    0.25090000
opls_145-7    C    0.48417006    0.26078000    0.78210975    -0.14320000
opls_145-8    C    0.48401006    0.30837987    0.77646073    -0.08440000
opls_145-9    C    0.53339992    0.30708011    0.38696908    -0.08180000
opls_145-10    C    0.53607997    0.25979990    0.40442914    -0.11860000
opls_700-11    C    0.50837987    0.33259988    0.57715953    0.08010000
opls_700-12    C    0.49651006    0.61107997    0.60173086    -0.06820000
opls_543-13    C    0.45651991    0.58628007    0.59660089    0.23320000
opls_543-14    C    0.53791989    0.58960015    0.56133945    0.23570000
opls_716-15    C    0.57775989    0.61408004    0.54078929    -0.14840000
opls_716-16    C    0.61093015    0.58387994    0.49837013    -0.15960000
opls_543-17    C    0.59050992    0.54155999    0.48160079    0.23230000
opls_716-18    C    0.41444999    0.60681988    0.61042958    -0.15150000
opls_716-19    C    0.38378992    0.57463004    0.55182073    -0.13730000
opls_543-20    C    0.40713004    0.53383986    0.53510997    0.23410000
opls_700-21    C    0.50626987    0.38139013    0.56130915    -0.05470000
opls_543-22    C    0.46463990    0.40312984    0.55040090    0.23230000
opls_543-23    C    0.54539000    0.40745006    0.53211076    0.23520000
opls_716-24    C    0.58795998    0.38761992    0.52319997    -0.13970000
opls_716-25    C    0.61729005    0.42029012    0.45986913    -0.14560000
opls_543-26    C    0.59339007    0.46066993    0.46734999    0.23520000
opls_716-27    C    0.42417992    0.37924005    0.53794963    -0.14840000
opls_716-28    C    0.39089007    0.40990997    0.52604972    -0.14840000
opls_543-29    C    0.41137009    0.45218984    0.51354998    0.23530000
opls_700-30    C    0.61536996    0.50224011    0.44169006    -0.05380000
opls_700-31    C    0.38562984    0.49204987    0.49973946    -0.05150000
opls_700-32    C    0.33708996    0.48949008    0.46841032    0.07610000
opls_700-33    C    0.66359016    0.50495991    0.39901036    0.08680000
opls_145-34    C    0.69444999    0.48263011    0.57246986    -0.08610000
opls_145-35    C    0.74137009    0.48617985    0.53375073    -0.14310000
opls_145-36    C    0.75889013    0.51415987    0.32952962    0.22420000
opls_145-37    C    0.72876987    0.53800992    0.16299962    -0.14310000
opls_145-38    C    0.68174990    0.53247996    0.19172944    -0.08430000
opls_145-39    C    0.31736004    0.46291989    0.26164038    -0.08440000
opls_145-40    C    0.27009003    0.45912998    0.23652980    -0.14290000
opls_145-41    C    0.24103988    0.48426994    0.40365964    0.25230000
opls_145-42    C    0.26027008    0.51073991    0.61092036    -0.14320000
opls_145-43    C    0.30733999    0.51183992    0.64829035    -0.08610000
opls_142-44    C    0.51609016    0.83587002    0.69763093    0.04470000
opls_142-45    C    0.16357012    0.51018005    0.46599075    0.06040000
opls_142-46    C    0.83738993    0.48699993    0.34712096    0.04470000
opls_142-47    C    0.48346005    0.15928999    0.73993901    0.06050000
opls_145-48    C    0.54779012    0.99765016    0.68173005    -0.01960000
opls_700-49    C    0.52403995    0.95694999    0.72260013    0.07060000
opls_567-50    C    0.47814003    0.95672985    0.78643992    -0.01500000
opls_145-51    C    0.45428999    0.99738993    0.82539939    -0.01960000
opls_700-52    C    0.47830004    0.03807990    0.79011977    0.07060000
opls_567-53    C    0.52364995    0.03830004    0.71421041    -0.01500000
opls_145-54    C    0.00117985    0.54628007    0.35674065    -0.01960000
opls_700-55    C    0.04080989    0.52027993    0.38245915    0.07060000
opls_567-56    C    0.03949008    0.47321001    0.39161028    -0.01500000
opls_145-57    C    0.99796983    0.44990997    0.38684992    -0.01930000
opls_700-58    C    0.95821987    0.47598994    0.36707935    0.07070000
opls_567-59    C    0.95974011    0.52296983    0.34662008    -0.01500000
opls_716-60    C    0.46041989    0.08091011    0.81288954    -0.18380000
opls_567-61    C    0.49305986    0.11298002    0.74492961    -0.02530000
opls_716-62    C    0.54164017    0.91405999    0.69319977    -0.18400000
opls_567-63    C    0.50763011    0.88203017    0.72871973    -0.02560000
opls_716-64    C    0.91472007    0.45938986    0.36767920    -0.18420000
opls_567-65    C    0.88396997    0.49479990    0.34173045    -0.02560000
opls_716-66    C    0.08399986    0.53717998    0.40466948    -0.17940000
opls_567-67    C    0.11493002    0.50181003    0.42324036    -0.00630000
opls_146-68    H    0.45140984    0.66906985    0.25661947    0.04750000
opls_146-69    H    0.44061014    0.75357012    0.31492941    0.04750000
opls_146-70    H    0.53736004    0.75282002    0.99033991    0.04750000
opls_146-71    H    0.53956991    0.66674005    0.97607901    0.04750000
opls_146-72    H    0.46259988    0.24208011    0.93767899    0.04750000
opls_146-73    H    0.46398016    0.32821001    0.93438087    0.04750000
opls_146-74    H    0.55162998    0.32575995    0.21686022    0.04750000
opls_146-75    H    0.55919011    0.24054015    0.25945913    0.04750000
opls_547-76    H    0.57713004    0.65266001    0.56061034    0.04750000
opls_547-77    H    0.64770010    0.59575010    0.48326096    0.04760000
opls_547-78    H    0.41171015    0.64438986    0.66410034    0.04690000
opls_547-79    H    0.34649001    0.58408004    0.52615071    0.04750000
opls_547-80    H    0.59197004    0.34979990    0.56674005    0.04750000
opls_547-81    H    0.65415987    0.41140984    0.41315008    0.04750000
opls_547-82    H    0.42451998    0.34052011    0.53934926    0.04750000
opls_547-83    H    0.35392003    0.39839007    0.52760083    0.04750000
opls_146-84    H    0.68121993    0.46126987    0.74770060    0.04750000
opls_146-85    H    0.76562984    0.46624983    0.66860017    0.04750000
opls_146-86    H    0.74245006    0.56217013    0.00245996    0.04750000
opls_146-87    H    0.65804015    0.55057005    0.04480036    0.04750000
opls_146-88    H    0.33997996    0.44412013    0.11182922    0.04750000
opls_146-89    H    0.25486004    0.43539000    0.07874902    0.04750000
opls_146-90    H    0.23743002    0.53149986    0.74998081    0.04750000
opls_146-91    H    0.32155999    0.53130011    0.82849959    0.04750000
opls_144-92    H    0.17458011    0.54114010    0.58785975    0.02800000
opls_144-93    H    0.45222007    0.17293009    0.84924969    0.02800000
opls_144-94    H    0.55270995    0.82344986    0.68541999    0.02800000
opls_144-95    H    0.82507983    0.45117000    0.39469028    0.02800000
opls_146-96    H    0.58529012    0.99678999    0.62438955    0.04750000
opls_146-97    H    0.41681988    0.99651006    0.88348918    0.04760000
opls_146-98    H    0.00348009    0.58488993    0.34489932    0.04750000
opls_146-99    H    0.99743002    0.41123998    0.39886091    0.04750000
opls_570-100    H    0.42493987    0.09229990    0.87567911    0.04750000
opls_570-101    H    0.57782987    0.90266986    0.64697958    0.04750000
opls_570-102    H    0.90197989    0.42293994    0.38552905    0.04750000
opls_570-103    H    0.09639013    0.57387009    0.40925010    0.04750000
opls_542-104    N    0.54479990    0.54389013    0.52672026    -0.33320000
opls_542-105    N    0.45289000    0.54064003    0.55620948    -0.33070000
opls_542-106    N    0.54757983    0.45396012    0.50608931    -0.33390000
opls_542-107    N    0.45784991    0.44899986    0.53262981    -0.33320000
opls_750-108    N    0.19529012    0.48160008    0.36245027    -0.25690000
opls_750-109    N    0.48140984    0.80578000    0.68183911    -0.21010000
opls_750-110    N    0.51282987    0.18993987    0.59740068    -0.20740000
opls_750-111    N    0.80694014    0.52045998    0.29799043    -0.20690000
F2_Co4+2-112    Co    0.49983014    0.49768990    0.53135944    0.71980000
opls_633-113    S    0.54538015    0.09107012    0.65753035    0.08880000
opls_633-114    S    0.45456991    0.90387994    0.80149052    0.08880000
opls_633-115    S    0.90779997    0.54818997    0.31665017    0.08880000
opls_633-116    S    0.09162013    0.44811014    0.41625028    0.08880000
