#======================================================================
# Crystal Data Generated By AuToFF
#----------------------------------------------------------------------

data_AuToFF_phase_1

_cell_length_a                         37.7657
_cell_length_b                         37.7657
_cell_length_c                         8.5357
_cell_angle_alpha                      90.00
_cell_angle_beta                       90.00
_cell_angle_gamma                      120.00
_symmetry_space_group_name_H-M_alt     'P 1'
_symmetry_space_group_IT_number        1

loop_
_space_group_symop_operation_xyz
   'x, y, z'

loop_
   _atom_site_label
   _atom_site_type_symbol
   _atom_site_fract_x
   _atom_site_fract_y
   _atom_site_fract_z
   _atom_site_charge
opls_142-0    C    0.54880003    0.46000986    0.97474958    0.07150000
opls_145-1    C    0.57263993    0.41492983    0.06966037    0.16830000
opls_700-2    C    0.56062982    0.38087987    0.96927961    0.01600000
opls_145-3    C    0.58514991    0.36237994    0.96061014    -0.17990000
opls_700-4    C    0.61945001    0.37502989    0.05745047    0.06270000
opls_145-5    C    0.63009995    0.40779996    0.16079056    -0.17570000
opls_700-6    C    0.60738987    0.42836985    0.16770036    0.01630000
opls_700-7    C    0.64358998    0.35332993    0.05372026    0.06050000
opls_145-8    C    0.68671001    0.37556006    0.05359959    -0.07480000
opls_700-9    C    0.52330987    0.47983982    0.99075998    -0.12090000
opls_727-10    C    0.52652988    0.50770989    0.87493000    0.12620000
opls_727-11    C    0.50286998    0.52739003    0.88323980    0.12340000
opls_515-12    C    0.47763014    0.63486002    0.12727954    0.05500000
opls_135-13    C    0.50316000    0.68158989    0.12717996    -0.42020000
opls_135-14    C    0.46756988    0.62001996    0.29568049    -0.42010000
opls_515-15    C    0.37931987    0.53372983    0.72495050    0.07970000
opls_135-16    C    0.41094000    0.54416980    0.59436016    -0.42020000
opls_135-17    C    0.33723000    0.51667978    0.64694050    -0.42020000
opls_142-18    C    0.21547004    0.79333983    0.30808018    0.07150000
opls_145-19    C    0.23930995    0.74825980    0.40298980    0.16830000
opls_700-20    C    0.22729983    0.71420984    0.30261021    0.01600000
opls_145-21    C    0.25181993    0.69570991    0.29393957    -0.17990000
opls_700-22    C    0.28612002    0.70835986    0.39077990    0.06260000
opls_145-23    C    0.29676996    0.74112993    0.49411999    -0.17570000
opls_700-24    C    0.27405989    0.76169982    0.50102979    0.01630000
opls_700-25    C    0.31026000    0.68665990    0.38704969    0.06050000
opls_145-26    C    0.35338003    0.70889003    0.38693019    -0.07480000
opls_700-27    C    0.18997988    0.81316979    0.32409058    -0.12090000
opls_727-28    C    0.19319990    0.84103986    0.20825943    0.12630000
opls_727-29    C    0.16954000    0.86072000    0.21657040    0.12340000
opls_515-30    C    0.14429989    0.96818999    0.46061014    0.05500000
opls_135-31    C    0.16983002    0.01491987    0.46051056    -0.42020000
opls_135-32    C    0.13423990    0.95334993    0.62900992    -0.42020000
opls_515-33    C    0.04598989    0.86705980    0.05827993    0.07950000
opls_135-34    C    0.07761001    0.87749977    0.92768959    -0.42020000
opls_135-35    C    0.00389975    0.85000975    0.98026993    -0.42020000
opls_142-36    C    0.88213001    0.12667989    0.64142015    0.07150000
opls_145-37    C    0.90596991    0.08159986    0.73632977    0.16830000
opls_700-38    C    0.89396007    0.04754990    0.63595019    0.01610000
opls_145-39    C    0.91847990    0.02904997    0.62727954    -0.17360000
opls_700-40    C    0.95277999    0.04169992    0.72411987    0.06260000
opls_145-41    C    0.96342993    0.07446999    0.82745996    -0.17560000
opls_700-42    C    0.94071985    0.09503988    0.83436976    0.01630000
opls_700-43    C    0.97691996    0.01999996    0.72038966    0.06050000
opls_145-44    C    0.02004000    0.04223009    0.72027016    -0.07480000
opls_700-45    C    0.85663985    0.14650985    0.65743056    -0.12120000
opls_727-46    C    0.85985987    0.17437992    0.54160057    0.12620000
opls_727-47    C    0.83619997    0.19406006    0.54991038    0.12340000
opls_515-48    C    0.81096012    0.30153005    0.79395012    0.05500000
opls_135-49    C    0.83648999    0.34825992    0.79385053    -0.42010000
opls_135-50    C    0.80089987    0.28668999    0.96234990    -0.42020000
opls_515-51    C    0.71264985    0.20039986    0.39161990    0.07950000
opls_135-52    C    0.74426998    0.21083983    0.26102956    -0.42020000
opls_135-53    C    0.67056013    0.18335012    0.31360990    -0.42020000
opls_142-54    C    0.53998993    0.08878997    0.97474958    0.07160000
opls_145-55    C    0.58506986    0.15770992    0.06966037    0.16830000
opls_700-56    C    0.61911999    0.17974987    0.96927961    0.01600000
opls_145-57    C    0.63761993    0.22277003    0.96061014    -0.17990000
opls_700-58    C    0.62496983    0.24441984    0.05745047    0.06260000
opls_145-59    C    0.59220004    0.22230009    0.16079056    -0.17570000
opls_700-60    C    0.57163004    0.17902003    0.16770036    0.01630000
opls_700-61    C    0.64667001    0.29025997    0.05372026    0.06050000
opls_145-62    C    0.62443986    0.31114998    0.05359959    -0.07470000
opls_700-63    C    0.52015999    0.04346993    0.99075998    -0.12090000
opls_727-64    C    0.49229000    0.01882006    0.87493000    0.12630000
opls_727-65    C    0.47260976    0.97547977    0.88323980    0.12350000
opls_515-66    C    0.36513995    0.84276981    0.12727954    0.05500000
opls_135-67    C    0.31840979    0.82156976    0.12717996    -0.42010000
opls_135-68    C    0.37997995    0.84754996    0.29568049    -0.42020000
opls_515-69    C    0.46626979    0.84558978    0.72495050    0.07950000
opls_135-70    C    0.45582995    0.86676995    0.59436016    -0.42010000
opls_135-71    C    0.48332000    0.82054977    0.64694050    -0.42020000
opls_142-72    C    0.20665994    0.42211994    0.30808018    0.07150000
opls_145-73    C    0.25173987    0.49103989    0.40298980    0.16830000
opls_700-74    C    0.28579001    0.51307984    0.30261021    0.01600000
opls_145-75    C    0.30428995    0.55610000    0.29393957    -0.17970000
opls_700-76    C    0.29163985    0.57774981    0.39077990    0.06270000
opls_145-77    C    0.25887006    0.55563006    0.49411999    -0.17570000
opls_700-78    C    0.23830005    0.51235000    0.50102979    0.01630000
opls_700-79    C    0.31334002    0.62358994    0.38704969    0.06050000
opls_145-80    C    0.29110988    0.64447995    0.38693019    -0.07480000
opls_700-81    C    0.18683000    0.37679990    0.32409058    -0.12120000
opls_727-82    C    0.15896001    0.35215003    0.20825943    0.12620000
opls_727-83    C    0.13927992    0.30881005    0.21657040    0.12340000
opls_515-84    C    0.03181012    0.17610009    0.46061014    0.05500000
opls_135-85    C    0.98507996    0.15490004    0.46051056    -0.42010000
opls_135-86    C    0.04664997    0.18087993    0.62900992    -0.42010000
opls_515-87    C    0.13293996    0.17892005    0.05827993    0.07950000
opls_135-88    C    0.12249996    0.20009992    0.92768959    -0.42010000
opls_135-89    C    0.14998991    0.15388005    0.98026993    -0.42010000
opls_142-90    C    0.87331991    0.75546000    0.64142015    0.07150000
opls_145-91    C    0.91839984    0.82437995    0.73632977    0.16830000
opls_700-92    C    0.95244997    0.84641990    0.63595019    0.01600000
opls_145-93    C    0.97094976    0.88943976    0.62727954    -0.17990000
opls_700-94    C    0.95829982    0.91108987    0.72411987    0.06260000
opls_145-95    C    0.92552988    0.88896981    0.82745996    -0.17570000
opls_700-96    C    0.90495987    0.84568976    0.83436976    0.01630000
opls_700-97    C    0.97999999    0.95693000    0.72038966    0.06050000
opls_145-98    C    0.95777011    0.97782001    0.72027016    -0.07480000
opls_700-99    C    0.85348997    0.71013996    0.65743056    -0.12120000
opls_727-100    C    0.82561983    0.68548978    0.54160057    0.12620000
opls_727-101    C    0.80594000    0.64214980    0.54991038    0.12340000
opls_515-102    C    0.69846994    0.50943984    0.79395012    0.05500000
opls_135-103    C    0.65173977    0.48823979    0.79385053    -0.42010000
opls_135-104    C    0.71330994    0.51421999    0.96234990    -0.42010000
opls_515-105    C    0.79959977    0.51225981    0.39161990    0.07950000
opls_135-106    C    0.78915993    0.53343998    0.26102956    -0.42020000
opls_135-107    C    0.81664999    0.48721980    0.31360990    -0.42020000
opls_142-108    C    0.91120989    0.45119987    0.97474958    0.07150000
opls_145-109    C    0.84229006    0.42735994    0.06966037    0.16830000
opls_700-110    C    0.82025004    0.43936995    0.96927961    0.01600000
opls_145-111    C    0.77722989    0.41485003    0.96061014    -0.17990000
opls_700-112    C    0.75558001    0.38054997    0.05745047    0.06260000
opls_145-113    C    0.77770001    0.36989995    0.16079056    -0.17570000
opls_700-114    C    0.82097994    0.39260981    0.16770036    0.01630000
opls_700-115    C    0.70974001    0.35641010    0.05372026    0.06050000
opls_145-116    C    0.68884986    0.31328995    0.05359959    -0.07480000
opls_700-117    C    0.95652999    0.47668995    0.99075998    -0.12090000
opls_727-118    C    0.98118012    0.47347005    0.87493000    0.12630000
opls_727-119    C    0.02451985    0.49712989    0.88323980    0.12340000
opls_515-120    C    0.15723002    0.52236986    0.12727954    0.05500000
opls_135-121    C    0.17843005    0.49684004    0.12717996    -0.42020000
opls_135-122    C    0.15245017    0.53243008    0.29568049    -0.42020000
opls_515-123    C    0.15440977    0.62067978    0.72495050    0.07950000
opls_135-124    C    0.13322991    0.58905995    0.59436016    -0.42010000
opls_135-125    C    0.17944996    0.66276984    0.64694050    -0.42020000
opls_142-126    C    0.57787991    0.78452984    0.30808018    0.07150000
opls_145-127    C    0.50896008    0.76068991    0.40298980    0.16830000
opls_700-128    C    0.48692005    0.77269992    0.30261021    0.01600000
opls_145-129    C    0.44389991    0.74818000    0.29393957    -0.17990000
opls_700-130    C    0.42225002    0.71387994    0.39077990    0.06260000
opls_145-131    C    0.44437003    0.70322992    0.49411999    -0.17570000
opls_700-132    C    0.48764996    0.72593978    0.50102979    0.01640000
opls_700-133    C    0.37640988    0.68973976    0.38704969    0.06050000
opls_145-134    C    0.35551988    0.64661992    0.38693019    -0.07480000
opls_700-135    C    0.62320001    0.81001992    0.32409058    -0.12080000
opls_727-136    C    0.64785013    0.80680002    0.20825943    0.12620000
opls_727-137    C    0.69118986    0.83045986    0.21657040    0.12340000
opls_515-138    C    0.82390003    0.85569983    0.46061014    0.05500000
opls_135-139    C    0.84510007    0.83017001    0.46051056    -0.42020000
opls_135-140    C    0.81911976    0.86575974    0.62900992    -0.42020000
opls_515-141    C    0.82107979    0.95400975    0.05827993    0.07960000
opls_135-142    C    0.79989992    0.92238992    0.92768959    -0.42020000
opls_135-143    C    0.84611998    0.99609981    0.98026993    -0.42020000
opls_142-144    C    0.24453988    0.11786990    0.64142015    0.07150000
opls_145-145    C    0.17562004    0.09402997    0.73632977    0.16830000
opls_700-146    C    0.15358002    0.10603998    0.63595019    0.01600000
opls_145-147    C    0.11056014    0.08152006    0.62727954    -0.17990000
opls_700-148    C    0.08890999    0.04722000    0.72411987    0.06260000
opls_145-149    C    0.11102999    0.03656998    0.82745996    -0.17570000
opls_700-150    C    0.15430992    0.05927984    0.83436976    0.01630000
opls_700-151    C    0.04307000    0.02308013    0.72038966    0.06050000
opls_145-152    C    0.02218011    0.97995998    0.72027016    -0.07480000
opls_700-153    C    0.28985998    0.14335998    0.65743056    -0.12120000
opls_727-154    C    0.31451010    0.14014008    0.54160057    0.12620000
opls_727-155    C    0.35784983    0.16379992    0.54991038    0.12340000
opls_515-156    C    0.49056000    0.18903989    0.79395012    0.05500000
opls_135-157    C    0.51176004    0.16351007    0.79385053    -0.42010000
opls_135-158    C    0.48578015    0.19910011    0.96234990    -0.42010000
opls_515-159    C    0.48774017    0.28735011    0.39161990    0.07950000
opls_135-160    C    0.46655989    0.25572998    0.26102956    -0.42010000
opls_135-161    C    0.51277994    0.32943987    0.31360990    -0.42020000
opls_142-162    C    0.45119982    0.53998984    0.02525042    0.07150000
opls_145-163    C    0.42735992    0.58506986    0.93033963    0.16830000
opls_700-164    C    0.43937003    0.61911982    0.03072039    0.01600000
opls_145-165    C    0.41485009    0.63762006    0.03938986    -0.17990000
opls_700-166    C    0.38054984    0.62496981    0.94254953    0.06270000
opls_145-167    C    0.36990005    0.59220004    0.83920944    -0.17560000
opls_700-168    C    0.39260998    0.57162984    0.83229964    0.01630000
opls_700-169    C    0.35640987    0.64666976    0.94627974    0.06050000
opls_145-170    C    0.31328999    0.62443994    0.94640041    -0.07480000
opls_700-171    C    0.47668998    0.52015987    0.00924002    -0.12090000
opls_727-172    C    0.47346996    0.49228981    0.12507000    0.12630000
opls_727-173    C    0.49713002    0.47260997    0.11676020    0.12340000
opls_515-174    C    0.52236986    0.36513998    0.87272046    0.05500000
opls_135-175    C    0.49684000    0.31841011    0.87282004    -0.42020000
opls_135-176    C    0.53243012    0.37998004    0.70431951    -0.42020000
opls_515-177    C    0.62067998    0.46626986    0.27504950    0.07950000
opls_135-178    C    0.58905985    0.45582990    0.40563984    -0.42010000
opls_135-179    C    0.66276985    0.48331991    0.35305950    -0.42020000
opls_142-180    C    0.11786984    0.87331981    0.35857985    0.07160000
opls_145-181    C    0.09402993    0.91839983    0.26367023    0.16830000
opls_700-182    C    0.10603978    0.95244979    0.36404981    0.01600000
opls_145-183    C    0.08151995    0.97094973    0.37272046    -0.17990000
opls_700-184    C    0.04721986    0.95829978    0.27588013    0.06260000
opls_145-185    C    0.03657007    0.92553001    0.17254004    -0.17570000
opls_700-186    C    0.05927999    0.90495981    0.16563024    0.01630000
opls_700-187    C    0.02307988    0.97999973    0.27961034    0.06060000
opls_145-188    C    0.97996000    0.95776991    0.27972984    -0.07480000
opls_700-189    C    0.14336000    0.85348984    0.34256944    -0.12110000
opls_727-190    C    0.14013998    0.82561978    0.45839943    0.12620000
opls_727-191    C    0.16380003    0.80593994    0.45008962    0.12340000
opls_515-192    C    0.18903988    0.69846995    0.20604988    0.05500000
opls_135-193    C    0.16350986    0.65173977    0.20614947    -0.42020000
opls_135-194    C    0.19910013    0.71331001    0.03765010    -0.42020000
opls_515-195    C    0.28734999    0.79959983    0.60838010    0.07950000
opls_135-196    C    0.25572987    0.78915987    0.73897044    -0.42020000
opls_135-197    C    0.32943987    0.81664988    0.68639010    -0.42000000
opls_142-198    C    0.78452981    0.20665987    0.69191982    0.07160000
opls_145-199    C    0.76068990    0.25173989    0.59701020    0.16830000
opls_700-200    C    0.77270001    0.28578985    0.69738979    0.01600000
opls_145-201    C    0.74818007    0.30429009    0.70606043    -0.17990000
opls_700-202    C    0.71387982    0.29163984    0.60922010    0.06260000
opls_145-203    C    0.70323004    0.25887007    0.50588001    -0.17570000
opls_700-204    C    0.72593996    0.23829987    0.49897021    0.01630000
opls_700-205    C    0.68974000    0.31334010    0.61295031    0.06050000
opls_145-206    C    0.64661997    0.29110997    0.61306981    -0.07480000
opls_700-207    C    0.81001997    0.18682990    0.67590942    -0.12090000
opls_727-208    C    0.80679995    0.15895984    0.79174057    0.12620000
opls_727-209    C    0.83046000    0.13928000    0.78342960    0.12340000
opls_515-210    C    0.85570011    0.03181001    0.53938986    0.05500000
opls_135-211    C    0.83016983    0.98507983    0.53948944    -0.42020000
opls_135-212    C    0.86576010    0.04665007    0.37099008    -0.42020000
opls_515-213    C    0.95400996    0.13293989    0.94172007    0.07950000
opls_135-214    C    0.92238983    0.12249993    0.07231041    -0.42020000
opls_135-215    C    0.99610010    0.14998994    0.01973007    -0.42020000
opls_142-216    C    0.46000992    0.91120973    0.02525042    0.07150000
opls_145-217    C    0.41492999    0.84228978    0.93033963    0.16830000
opls_700-218    C    0.38087986    0.82024983    0.03072039    0.01600000
opls_145-219    C    0.36238007    0.77722997    0.03938986    -0.17990000
opls_700-220    C    0.37503001    0.75557985    0.94254953    0.06260000
opls_145-221    C    0.40779996    0.77769991    0.83920944    -0.17570000
opls_700-222    C    0.42836996    0.82097997    0.83229964    0.01630000
opls_700-223    C    0.35332999    0.70974003    0.94627974    0.06050000
opls_145-224    C    0.37556014    0.68885002    0.94640041    -0.07480000
opls_700-225    C    0.47983986    0.95652977    0.00924002    -0.12090000
opls_727-226    C    0.50771000    0.98117994    0.12507000    0.12620000
opls_727-227    C    0.52739009    0.02451992    0.11676020    0.12340000
opls_515-228    C    0.63485989    0.15722988    0.87272046    0.05500000
opls_135-229    C    0.68159006    0.17842993    0.87282004    -0.42010000
opls_135-230    C    0.62002005    0.15245004    0.70431951    -0.42010000
opls_515-231    C    0.53373006    0.15440992    0.27504950    0.07950000
opls_135-232    C    0.54417005    0.13323005    0.40563984    -0.42010000
opls_135-233    C    0.51667984    0.17944992    0.35305950    -0.42020000
opls_142-234    C    0.12668009    0.24454000    0.35857985    0.07150000
opls_145-235    C    0.08159989    0.17562005    0.26367023    0.16830000
opls_700-236    C    0.04755003    0.15358010    0.36404981    0.01600000
opls_145-237    C    0.02905008    0.11055994    0.37272046    -0.17990000
opls_700-238    C    0.04170018    0.08891013    0.27588013    0.06260000
opls_145-239    C    0.07446997    0.11102988    0.17254004    -0.17570000
opls_700-240    C    0.09503998    0.15430994    0.16563024    0.01630000
opls_700-241    C    0.02000001    0.04307000    0.27961034    0.06050000
opls_145-242    C    0.04222989    0.02217999    0.27972984    -0.07470000
opls_700-243    C    0.14651003    0.28986004    0.34256944    -0.12120000
opls_727-244    C    0.17438002    0.31450991    0.45839943    0.12620000
opls_727-245    C    0.19405984    0.35784989    0.45008962    0.12340000
opls_515-246    C    0.30152991    0.49055985    0.20604988    0.05500000
opls_135-247    C    0.34826007    0.51175990    0.20614947    -0.42020000
opls_135-248    C    0.28669006    0.48578001    0.03765010    -0.42020000
opls_515-249    C    0.20040008    0.48773989    0.60838010    0.07960000
opls_135-250    C    0.21084007    0.46656002    0.73897044    -0.42020000
opls_135-251    C    0.18334986    0.51277989    0.68639010    -0.42020000
opls_142-252    C    0.79334006    0.57788006    0.69191982    0.07150000
opls_145-253    C    0.74825997    0.50895981    0.59701020    0.16830000
opls_700-254    C    0.71420984    0.48691986    0.69738979    0.01600000
opls_145-255    C    0.69571005    0.44390000    0.70606043    -0.17990000
opls_700-256    C    0.70836000    0.42224988    0.60922010    0.06260000
opls_145-257    C    0.74112994    0.44436994    0.50588001    -0.17570000
opls_700-258    C    0.76169995    0.48765000    0.49897021    0.01630000
opls_700-259    C    0.68665998    0.37641006    0.61295031    0.06050000
opls_145-260    C    0.70889012    0.35552005    0.61306981    -0.07480000
opls_700-261    C    0.81316984    0.62319980    0.67590942    -0.12120000
opls_727-262    C    0.84103999    0.64784997    0.79174057    0.12640000
opls_727-263    C    0.86072008    0.69118995    0.78342960    0.12340000
opls_515-264    C    0.96818988    0.82389991    0.53938986    0.05500000
opls_135-265    C    0.01492004    0.84509996    0.53948944    -0.42020000
opls_135-266    C    0.95334988    0.81911976    0.37099008    -0.42010000
opls_515-267    C    0.86706004    0.82107995    0.94172007    0.07950000
opls_135-268    C    0.87749989    0.79989977    0.07231041    -0.42020000
opls_135-269    C    0.85001009    0.84611995    0.01973007    -0.42020000
opls_142-270    C    0.08878995    0.54879982    0.02525042    0.07150000
opls_145-271    C    0.15770994    0.57264006    0.93033963    0.16830000
opls_700-272    C    0.17974996    0.56063005    0.03072039    0.01600000
opls_145-273    C    0.22277011    0.58514997    0.03938986    -0.17970000
opls_700-274    C    0.24441999    0.61945003    0.94254953    0.06260000
opls_145-275    C    0.22229999    0.63010005    0.83920944    -0.17560000
opls_700-276    C    0.17901991    0.60738988    0.83229964    0.01630000
opls_700-277    C    0.29025999    0.64358990    0.94627974    0.06050000
opls_145-278    C    0.31115014    0.68671005    0.94640041    -0.07480000
opls_700-279    C    0.04347001    0.52331005    0.00924002    -0.12090000
opls_727-280    C    0.01881988    0.52652995    0.12507000    0.12620000
opls_727-281    C    0.97548000    0.50286980    0.11676020    0.12340000
opls_515-282    C    0.84276983    0.47762983    0.87272046    0.05500000
opls_135-283    C    0.82156995    0.50315996    0.87282004    -0.42010000
opls_135-284    C    0.84754983    0.46756992    0.70431951    -0.42020000
opls_515-285    C    0.84559008    0.37931992    0.27504950    0.07950000
opls_135-286    C    0.86677009    0.41094005    0.40563984    -0.42010000
opls_135-287    C    0.82054989    0.33722986    0.35305950    -0.42010000
opls_142-288    C    0.75545997    0.88212979    0.35857985    0.07150000
opls_145-289    C    0.82437996    0.90597003    0.26367023    0.16830000
opls_700-290    C    0.84641998    0.89396002    0.36404981    0.01600000
opls_145-291    C    0.88943986    0.91847994    0.37272046    -0.17980000
opls_700-292    C    0.91109001    0.95278000    0.27588013    0.06260000
opls_145-293    C    0.88897001    0.96343002    0.17254004    -0.17560000
opls_700-294    C    0.84568992    0.94071985    0.16563024    0.01630000
opls_700-295    C    0.95693000    0.97691987    0.27961034    0.06050000
opls_145-296    C    0.97781989    0.02004002    0.27972984    -0.07480000
opls_700-297    C    0.71014002    0.85664002    0.34256944    -0.12120000
opls_727-298    C    0.68548990    0.85985992    0.45839943    0.12620000
opls_727-299    C    0.64215002    0.83619977    0.45008962    0.12340000
opls_515-300    C    0.50943984    0.81095980    0.20604988    0.05500000
opls_135-301    C    0.48823996    0.83648993    0.20614947    -0.42020000
opls_135-302    C    0.51421985    0.80089989    0.03765010    -0.42020000
opls_515-303    C    0.51225983    0.71264989    0.60838010    0.07950000
opls_135-304    C    0.53344011    0.74427002    0.73897044    -0.42020000
opls_135-305    C    0.48721990    0.67055983    0.68639010    -0.42020000
opls_142-306    C    0.42211994    0.21546985    0.69191982    0.07150000
opls_145-307    C    0.49103992    0.23931009    0.59701020    0.16830000
opls_700-308    C    0.51307995    0.22730008    0.69738979    0.01600000
opls_145-309    C    0.55610009    0.25182000    0.70606043    -0.17990000
opls_700-310    C    0.57774998    0.28612006    0.60922010    0.06260000
opls_145-311    C    0.55562997    0.29677008    0.50588001    -0.17570000
opls_700-312    C    0.51234989    0.27405991    0.49897021    0.01630000
opls_700-313    C    0.62358997    0.31025993    0.61295031    0.06050000
opls_145-314    C    0.64448012    0.35338008    0.61306981    -0.07480000
opls_700-315    C    0.37679999    0.18998008    0.67590942    -0.12090000
opls_727-316    C    0.35214987    0.19319998    0.79174057    0.12630000
opls_727-317    C    0.30880999    0.16953983    0.78342960    0.12340000
opls_515-318    C    0.17609981    0.14429986    0.53938986    0.05500000
opls_135-319    C    0.15489993    0.16982999    0.53948944    -0.42020000
opls_135-320    C    0.18088008    0.13423995    0.37099008    -0.42020000
opls_515-321    C    0.17892006    0.04598995    0.94172007    0.07950000
opls_135-322    C    0.20010008    0.07761008    0.07231041    -0.42020000
opls_135-323    C    0.15387987    0.00389989    0.01973007    -0.42020000
opls_750-324    N    0.54851998    0.43480994    0.07916984    -0.34420000
opls_750-325    N    0.21518999    0.76813991    0.41250044    -0.34440000
opls_750-326    N    0.88184996    0.10147997    0.74584041    -0.34430000
opls_750-327    N    0.56519014    0.11371012    0.07916984    -0.34440000
opls_750-328    N    0.23186015    0.44704009    0.41250044    -0.34440000
opls_750-329    N    0.89851997    0.78037984    0.74584041    -0.34440000
opls_750-330    N    0.88628989    0.45147994    0.07916984    -0.34440000
opls_750-331    N    0.55295990    0.78480991    0.41250044    -0.34430000
opls_750-332    N    0.21961987    0.11814997    0.74584041    -0.34430000
opls_750-333    N    0.45148002    0.56519006    0.92083016    -0.34440000
opls_750-334    N    0.11815004    0.89852003    0.25415959    -0.34440000
opls_750-335    N    0.78481001    0.23186009    0.58749956    -0.34440000
opls_750-336    N    0.43480986    0.88628988    0.92083016    -0.34440000
opls_750-337    N    0.10147988    0.21961985    0.25415959    -0.34430000
opls_750-338    N    0.76813985    0.55295991    0.58749956    -0.34420000
opls_750-339    N    0.11371011    0.54852006    0.92083016    -0.34420000
opls_750-340    N    0.78038013    0.88185003    0.25415959    -0.34420000
opls_750-341    N    0.44704010    0.21519009    0.58749956    -0.34440000
opls_719-342    F    0.50621004    0.55437005    0.76975995    -0.15550000
opls_719-343    F    0.55340000    0.51538981    0.75499022    -0.16110000
opls_719-344    F    0.17288005    0.88770002    0.10309055    -0.15560000
opls_719-345    F    0.22007002    0.84871978    0.08831965    -0.16110000
opls_719-346    F    0.83954002    0.22104008    0.43643052    -0.15550000
opls_719-347    F    0.88672999    0.18205984    0.42165962    -0.16110000
opls_719-348    F    0.44562999    0.95183981    0.76975995    -0.15560000
opls_719-349    F    0.48461007    0.03801008    0.75499022    -0.16100000
opls_719-350    F    0.11230016    0.28517009    0.10309055    -0.15560000
opls_719-351    F    0.15128009    0.37134005    0.08831965    -0.16110000
opls_719-352    F    0.77895997    0.61850984    0.43643052    -0.15560000
opls_719-353    F    0.81793990    0.70467981    0.42165962    -0.16110000
opls_719-354    F    0.04815982    0.49378984    0.76975995    -0.15560000
opls_719-355    F    0.96198977    0.44659980    0.75499022    -0.16110000
opls_719-356    F    0.71482984    0.82711981    0.10309055    -0.15550000
opls_719-357    F    0.62865979    0.77992977    0.08831965    -0.16110000
opls_719-358    F    0.38148981    0.16045987    0.43643052    -0.15550000
opls_719-359    F    0.29532002    0.11326983    0.42165962    -0.16110000
opls_719-360    F    0.49378996    0.44562995    0.23024005    -0.15560000
opls_719-361    F    0.44659985    0.48460989    0.24500978    -0.16110000
opls_719-362    F    0.16045998    0.77895992    0.56356948    -0.15560000
opls_719-363    F    0.11326986    0.81793986    0.57834038    -0.16100000
opls_719-364    F    0.82711995    0.11229998    0.89690945    -0.15560000
opls_719-365    F    0.77992983    0.15127992    0.91168035    -0.16110000
opls_719-366    F    0.55436986    0.04815988    0.23024005    -0.15540000
opls_719-367    F    0.51538993    0.96198992    0.24500978    -0.16110000
opls_719-368    F    0.22103988    0.38148985    0.56356948    -0.15560000
opls_719-369    F    0.18205994    0.29531989    0.57834038    -0.16110000
opls_719-370    F    0.88769984    0.71482991    0.89690945    -0.15560000
opls_719-371    F    0.84871991    0.62865995    0.91168035    -0.16110000
opls_719-372    F    0.95184002    0.50620986    0.23024005    -0.15560000
opls_719-373    F    0.03801008    0.55339989    0.24500978    -0.16110000
opls_719-374    F    0.61851004    0.83953983    0.56356948    -0.15560000
opls_719-375    F    0.70467983    0.88672986    0.57834038    -0.16110000
opls_719-376    F    0.28517001    0.17287989    0.89690945    -0.15560000
opls_719-377    F    0.37134006    0.22006992    0.91168035    -0.16110000
opls_144-378    H    0.56845992    0.46736996    0.87330037    0.11210000
opls_146-379    H    0.57721996    0.33754998    0.87946038    0.11380000
opls_146-380    H    0.65596979    0.41662982    0.23735019    0.11390000
opls_146-381    H    0.70242008    0.40864996    0.05454034    0.11280000
opls_702-382    H    0.49757000    0.62355998    0.07674942    0.04740000
opls_140-383    H    0.48824001    0.69553991    0.19484049    0.10250000
opls_140-384    H    0.50820996    0.69349992    0.00638026    0.12090000
opls_140-385    H    0.53364989    0.69154982    0.18004030    0.11000000
opls_140-386    H    0.49595999    0.63285978    0.36729969    0.10960000
opls_140-387    H    0.45331991    0.58631000    0.29958996    0.16710000
opls_140-388    H    0.44621979    0.62904978    0.34687958    0.16610000
opls_702-389    H    0.37835010    0.50876993    0.79889054    0.11060000
opls_140-390    H    0.41141989    0.56808004    0.51816020    0.12450000
opls_140-391    H    0.40365991    0.51657980    0.52374029    0.11000000
opls_140-392    H    0.44242981    0.55539982    0.63989011    0.10800000
opls_140-393    H    0.32860984    0.48762982    0.58407981    0.10800000
opls_140-394    H    0.33736987    0.53887995    0.56156964    0.16640000
opls_140-395    H    0.31287985    0.50961993    0.73348993    0.10960000
opls_144-396    H    0.23512994    0.80069993    0.20662980    0.11210000
opls_146-397    H    0.24388997    0.67087995    0.21278981    0.11390000
opls_146-398    H    0.32263981    0.74995979    0.57067962    0.11390000
opls_146-399    H    0.36909009    0.74197993    0.38786977    0.11280000
opls_702-400    H    0.16424002    0.95688995    0.41008002    0.04740000
opls_140-401    H    0.15491003    0.02886988    0.52816992    0.10240000
opls_140-402    H    0.17487998    0.02682989    0.33970969    0.12090000
opls_140-403    H    0.20032006    0.02488010    0.51336973    0.11000000
opls_140-404    H    0.16262974    0.96618975    0.70063029    0.10960000
opls_140-405    H    0.11998993    0.91963997    0.63292056    0.16710000
opls_140-406    H    0.11288981    0.96237975    0.68021018    0.16610000
opls_702-407    H    0.04501985    0.84209990    0.13221997    0.11070000
opls_140-408    H    0.07808991    0.90141001    0.85148963    0.12450000
opls_140-409    H    0.07032992    0.84990977    0.85706972    0.11000000
opls_140-410    H    0.10909983    0.88872980    0.97321954    0.10810000
opls_140-411    H    0.99527986    0.82095979    0.91741041    0.10800000
opls_140-412    H    0.00403989    0.87220992    0.89490024    0.16630000
opls_140-413    H    0.97954987    0.84294990    0.06682053    0.10960000
opls_144-414    H    0.90178991    0.13403999    0.53996977    0.11210000
opls_146-415    H    0.91054994    0.00422001    0.54612978    0.11380000
opls_146-416    H    0.98930004    0.08329985    0.90401959    0.11400000
opls_146-417    H    0.03575006    0.07531999    0.72120974    0.11280000
opls_702-418    H    0.83089999    0.29023001    0.74341999    0.04740000
opls_140-419    H    0.82156999    0.36220994    0.86150989    0.10240000
opls_140-420    H    0.84153995    0.36016995    0.67304966    0.12100000
opls_140-421    H    0.86697987    0.35821985    0.84670970    0.11000000
opls_140-422    H    0.82928998    0.29952981    0.03397027    0.10960000
opls_140-423    H    0.78664989    0.25298003    0.96626053    0.16710000
opls_140-424    H    0.77955004    0.29571981    0.01355015    0.16600000
opls_702-425    H    0.71168008    0.17543996    0.46555994    0.11060000
opls_140-426    H    0.74475014    0.23475007    0.18482960    0.12450000
opls_140-427    H    0.73698989    0.18324983    0.19040969    0.11000000
opls_140-428    H    0.77575980    0.22206985    0.30655951    0.10800000
opls_140-429    H    0.66193982    0.15429985    0.25075038    0.10820000
opls_140-430    H    0.67070012    0.20554998    0.22824021    0.16630000
opls_140-431    H    0.64621010    0.17628996    0.40016050    0.10960000
opls_144-432    H    0.53263013    0.10109013    0.87330037    0.11210000
opls_146-433    H    0.66245010    0.23966996    0.87946038    0.11390000
opls_146-434    H    0.58337015    0.23934005    0.23735019    0.11390000
opls_146-435    H    0.59134996    0.29377002    0.05454034    0.11290000
opls_702-436    H    0.37643994    0.87400989    0.07674942    0.04740000
opls_140-437    H    0.30445995    0.79269988    0.19484049    0.10240000
opls_140-438    H    0.30649993    0.81470987    0.00638026    0.12090000
opls_140-439    H    0.30844989    0.84209990    0.18004030    0.11000000
opls_140-440    H    0.36713996    0.86309999    0.36729969    0.10960000
opls_140-441    H    0.41368991    0.86700997    0.29958996    0.16710000
opls_140-442    H    0.37095004    0.81716997    0.34687958    0.16600000
opls_702-443    H    0.49123002    0.86957983    0.79889054    0.11060000
opls_140-444    H    0.43191991    0.84333974    0.51816020    0.12450000
opls_140-445    H    0.48342008    0.88707995    0.52374029    0.11000000
opls_140-446    H    0.44460001    0.88702980    0.63989011    0.10800000
opls_140-447    H    0.51236990    0.84097993    0.58407981    0.10800000
opls_140-448    H    0.46111990    0.79848994    0.56156964    0.16630000
opls_140-449    H    0.49038011    0.80326001    0.73348993    0.10970000
opls_144-450    H    0.19930000    0.43441980    0.20662980    0.11220000
opls_146-451    H    0.32911985    0.57299993    0.21278981    0.11380000
opls_146-452    H    0.25003991    0.57267002    0.57067962    0.11390000
opls_146-453    H    0.25801998    0.62709999    0.38786977    0.11280000
opls_702-454    H    0.04310995    0.20733986    0.41008002    0.04740000
opls_140-455    H    0.97112996    0.12602986    0.52816992    0.10240000
opls_140-456    H    0.97316994    0.14803984    0.33970969    0.12090000
opls_140-457    H    0.97511991    0.17542987    0.51336973    0.11000000
opls_140-458    H    0.03380998    0.19642996    0.70063029    0.10960000
opls_140-459    H    0.08035993    0.20033994    0.63292056    0.16720000
opls_140-460    H    0.03762006    0.15049994    0.68021018    0.16600000
opls_702-461    H    0.15789992    0.20291010    0.13221997    0.11060000
opls_140-462    H    0.09859008    0.17667001    0.85148963    0.12450000
opls_140-463    H    0.15008983    0.22040992    0.85706972    0.11000000
opls_140-464    H    0.11126992    0.22036008    0.97321954    0.10800000
opls_140-465    H    0.17903991    0.17430990    0.91741041    0.10800000
opls_140-466    H    0.12778992    0.13181991    0.89490024    0.16630000
opls_140-467    H    0.15704986    0.13658998    0.06682053    0.10970000
opls_144-468    H    0.86595996    0.76775986    0.53996977    0.11210000
opls_146-469    H    0.99578009    0.90633999    0.54612978    0.11380000
opls_146-470    H    0.91669999    0.90600977    0.90401959    0.11400000
opls_146-471    H    0.92467979    0.96043975    0.72120974    0.11280000
opls_702-472    H    0.70976992    0.54067992    0.74341999    0.04740000
opls_140-473    H    0.63778993    0.45936991    0.86150989    0.10240000
opls_140-474    H    0.63982991    0.48137990    0.67304966    0.12090000
opls_140-475    H    0.64177988    0.50876993    0.84670970    0.11000000
opls_140-476    H    0.70046994    0.52977002    0.03397027    0.10960000
opls_140-477    H    0.74701990    0.53368000    0.96626053    0.16710000
opls_140-478    H    0.70428002    0.48384000    0.01355015    0.16600000
opls_702-479    H    0.82456000    0.53624986    0.46555994    0.11060000
opls_140-480    H    0.76525005    0.51001007    0.18482960    0.12450000
opls_140-481    H    0.81675006    0.55374998    0.19040969    0.11000000
opls_140-482    H    0.77793000    0.55369983    0.30655951    0.10800000
opls_140-483    H    0.84569988    0.50764996    0.25075038    0.10800000
opls_140-484    H    0.79444988    0.46515997    0.22824021    0.16630000
opls_140-485    H    0.82371010    0.46993004    0.40016050    0.10960000
opls_144-486    H    0.89890994    0.43153990    0.87330037    0.11210000
opls_146-487    H    0.76032994    0.42278006    0.87946038    0.11380000
opls_146-488    H    0.76065990    0.34402982    0.23735019    0.11390000
opls_146-489    H    0.70622996    0.29758002    0.05454034    0.11280000
opls_702-490    H    0.12598991    0.50242982    0.07674942    0.04740000
opls_140-491    H    0.20729989    0.51175990    0.19484049    0.10240000
opls_140-492    H    0.18528996    0.49178990    0.00638026    0.12090000
opls_140-493    H    0.15790006    0.46634997    0.18004030    0.11000000
opls_140-494    H    0.13689989    0.50403992    0.36729969    0.10960000
opls_140-495    H    0.13298991    0.54668003    0.29958996    0.16710000
opls_140-496    H    0.18283002    0.55377994    0.34687958    0.16600000
opls_702-497    H    0.13042000    0.62164993    0.79889054    0.11060000
opls_140-498    H    0.15666004    0.58857991    0.51816020    0.12450000
opls_140-499    H    0.11291986    0.59633994    0.52374029    0.11000000
opls_140-500    H    0.11297002    0.55757006    0.63989011    0.10800000
opls_140-501    H    0.15901984    0.67138995    0.58407981    0.10800000
opls_140-502    H    0.20150981    0.66262980    0.56156964    0.16640000
opls_140-503    H    0.19673988    0.68711976    0.73348993    0.10960000
opls_144-504    H    0.56557996    0.76486987    0.20662980    0.11210000
opls_146-505    H    0.42699996    0.75611003    0.21278981    0.11390000
opls_146-506    H    0.42732991    0.67735979    0.57067962    0.11390000
opls_146-507    H    0.37289998    0.63090999    0.38786977    0.11290000
opls_702-508    H    0.79265992    0.83575979    0.41008002    0.04740000
opls_140-509    H    0.87396991    0.84508987    0.52816992    0.10240000
opls_140-510    H    0.85195997    0.82511987    0.33970969    0.12090000
opls_140-511    H    0.82457008    0.79967994    0.51336973    0.11000000
opls_140-512    H    0.80356991    0.83736989    0.70063029    0.10960000
opls_140-513    H    0.79965993    0.88001000    0.63292056    0.16710000
opls_140-514    H    0.84950003    0.88710991    0.68021018    0.16600000
opls_702-515    H    0.79709001    0.95497990    0.13221997    0.11060000
opls_140-516    H    0.82333006    0.92190988    0.85148963    0.12450000
opls_140-517    H    0.77958988    0.92966991    0.85706972    0.11010000
opls_140-518    H    0.77963988    0.89089973    0.97321954    0.10800000
opls_140-519    H    0.82568986    0.00471992    0.91741041    0.10800000
opls_140-520    H    0.86817983    0.99595977    0.89490024    0.16630000
opls_140-521    H    0.86340990    0.02044973    0.06682053    0.10960000
opls_144-522    H    0.23223993    0.09820993    0.53996977    0.11210000
opls_146-523    H    0.09365992    0.08945009    0.54612978    0.11390000
opls_146-524    H    0.09398988    0.01069985    0.90401959    0.11390000
opls_146-525    H    0.03955979    0.96424974    0.72120974    0.11280000
opls_702-526    H    0.45931989    0.16909985    0.74341999    0.04740000
opls_140-527    H    0.54062987    0.17842993    0.86150989    0.10240000
opls_140-528    H    0.51861994    0.15845993    0.67304966    0.12090000
opls_140-529    H    0.49123005    0.13302000    0.84670970    0.11000000
opls_140-530    H    0.47022988    0.17070995    0.03397027    0.10960000
opls_140-531    H    0.46632016    0.21335006    0.96626053    0.16710000
opls_140-532    H    0.51616000    0.22044997    0.01355015    0.16600000
opls_702-533    H    0.46374998    0.28831996    0.46555994    0.11060000
opls_140-534    H    0.48999003    0.25524994    0.18482960    0.12450000
opls_140-535    H    0.44625011    0.26300997    0.19040969    0.11000000
opls_140-536    H    0.44630000    0.22424009    0.30655951    0.10800000
opls_140-537    H    0.49235009    0.33805998    0.25075038    0.10810000
opls_140-538    H    0.53483980    0.32929983    0.22824021    0.16630000
opls_140-539    H    0.53007002    0.35379009    0.40016050    0.10960000
opls_144-540    H    0.43154008    0.53263004    0.12669963    0.11210000
opls_146-541    H    0.42278004    0.66245002    0.12053962    0.11380000
opls_146-542    H    0.34403005    0.58336987    0.76264981    0.11390000
opls_146-543    H    0.29757992    0.59135004    0.94545966    0.11290000
opls_702-544    H    0.50243000    0.37644002    0.92325058    0.04740000
opls_140-545    H    0.51175999    0.30446009    0.80515951    0.10240000
opls_140-546    H    0.49179004    0.30650008    0.99361974    0.12090000
opls_140-547    H    0.46634996    0.30844987    0.81995970    0.11000000
opls_140-548    H    0.50403985    0.36713991    0.63270031    0.10960000
opls_140-549    H    0.54668009    0.41369000    0.70041004    0.16710000
opls_140-550    H    0.55378006    0.37094991    0.65312042    0.16610000
opls_702-551    H    0.62165017    0.49123007    0.20110946    0.11060000
opls_140-552    H    0.58858011    0.43191996    0.48183980    0.12450000
opls_140-553    H    0.59633994    0.48341989    0.47625971    0.11010000
opls_140-554    H    0.55757003    0.44459987    0.36010989    0.10800000
opls_140-555    H    0.67139001    0.51236988    0.41592019    0.10800000
opls_140-556    H    0.66263013    0.46112005    0.43843036    0.16630000
opls_140-557    H    0.68712015    0.49038007    0.26651007    0.10960000
opls_144-558    H    0.09821009    0.86596001    0.46003023    0.11220000
opls_146-559    H    0.08945006    0.99577999    0.45387022    0.11380000
opls_146-560    H    0.01069980    0.91669984    0.09598041    0.11390000
opls_146-561    H    0.96424994    0.92468001    0.27879026    0.11280000
opls_702-562    H    0.16910001    0.70976999    0.25658001    0.04740000
opls_140-563    H    0.17843001    0.63779006    0.13849011    0.10240000
opls_140-564    H    0.15846005    0.63983005    0.32695034    0.12090000
opls_140-565    H    0.13301998    0.64177984    0.15329030    0.11000000
opls_140-566    H    0.17070987    0.70046988    0.96602973    0.10970000
opls_140-567    H    0.21335011    0.74701997    0.03373947    0.16710000
opls_140-568    H    0.22044981    0.70427988    0.98644985    0.16600000
opls_702-569    H    0.28831992    0.82456004    0.53444006    0.11060000
opls_140-570    H    0.25524986    0.76524993    0.81517040    0.12450000
opls_140-571    H    0.26300996    0.81674986    0.80959031    0.11000000
opls_140-572    H    0.22424005    0.77792984    0.69344049    0.10800000
opls_140-573    H    0.33806002    0.84569985    0.74924962    0.10800000
opls_140-574    H    0.32929988    0.79445002    0.77175979    0.16630000
opls_140-575    H    0.35378990    0.82371004    0.59983950    0.10960000
opls_144-576    H    0.76487006    0.19930007    0.79337020    0.11210000
opls_146-577    H    0.75611003    0.32912005    0.78721019    0.11380000
opls_146-578    H    0.67736004    0.25003990    0.42932038    0.11390000
opls_146-579    H    0.63090991    0.25802007    0.61213023    0.11280000
opls_702-580    H    0.83575998    0.04311005    0.58991998    0.04740000
opls_140-581    H    0.84508982    0.97112982    0.47183008    0.10240000
opls_140-582    H    0.82511987    0.97316980    0.66029031    0.12090000
opls_140-583    H    0.79967994    0.97511990    0.48663027    0.11000000
opls_140-584    H    0.83737010    0.03380994    0.29936971    0.10960000
opls_140-585    H    0.88001007    0.08036003    0.36707944    0.16710000
opls_140-586    H    0.88711004    0.03761994    0.31978982    0.16610000
opls_702-587    H    0.95498015    0.15790010    0.86778003    0.11060000
opls_140-588    H    0.92191009    0.09858999    0.14851037    0.12450000
opls_140-589    H    0.92966993    0.15008992    0.14293028    0.11000000
opls_140-590    H    0.89090002    0.11126990    0.02678046    0.10800000
opls_140-591    H    0.00471999    0.17903991    0.08258959    0.10800000
opls_140-592    H    0.99596011    0.12779008    0.10509976    0.16630000
opls_140-593    H    0.02045013    0.15705010    0.93317947    0.10960000
opls_144-594    H    0.46736987    0.89890987    0.12669963    0.11210000
opls_146-595    H    0.33754990    0.76033004    0.12053962    0.11380000
opls_146-596    H    0.41662985    0.76065995    0.76264981    0.11400000
opls_146-597    H    0.40865004    0.70622998    0.94545966    0.11290000
opls_702-598    H    0.62356006    0.12599011    0.92325058    0.04740000
opls_140-599    H    0.69554005    0.20730012    0.80515951    0.10240000
opls_140-600    H    0.69350007    0.18529013    0.99361974    0.12090000
opls_140-601    H    0.69155011    0.15790010    0.81995970    0.11000000
opls_140-602    H    0.63286004    0.13690001    0.63270031    0.10960000
opls_140-603    H    0.58631009    0.13299003    0.70041004    0.16710000
opls_140-604    H    0.62904996    0.18283003    0.65312042    0.16600000
opls_702-605    H    0.50876983    0.13041987    0.20110946    0.11060000
opls_140-606    H    0.56807994    0.15665996    0.48183980    0.12460000
opls_140-607    H    0.51657992    0.11292005    0.47625971    0.11000000
opls_140-608    H    0.55539983    0.11296989    0.36010989    0.10800000
opls_140-609    H    0.48763010    0.15902007    0.41592019    0.10800000
opls_140-610    H    0.53888010    0.20151006    0.43843036    0.16630000
opls_140-611    H    0.50961989    0.19673999    0.26651007    0.10960000
opls_144-612    H    0.13403988    0.23223984    0.46003023    0.11210000
opls_146-613    H    0.00421991    0.09366001    0.45387022    0.11380000
opls_146-614    H    0.08329986    0.09398992    0.09598041    0.11390000
opls_146-615    H    0.07532005    0.03955995    0.27879026    0.11280000
opls_702-616    H    0.29023008    0.45932008    0.25658001    0.04740000
opls_140-617    H    0.36220992    0.54062978    0.13849011    0.10240000
opls_140-618    H    0.36016994    0.51861979    0.32695034    0.12090000
opls_140-619    H    0.35822012    0.49123007    0.15329030    0.11000000
opls_140-620    H    0.29953006    0.47022998    0.96602973    0.10960000
opls_140-621    H    0.25298010    0.46632000    0.03373947    0.16710000
opls_140-622    H    0.29571998    0.51616000    0.98644985    0.16600000
opls_702-623    H    0.17543985    0.46374984    0.53444006    0.11060000
opls_140-624    H    0.23474995    0.48998993    0.81517040    0.12450000
opls_140-625    H    0.18324994    0.44625002    0.80959031    0.11000000
opls_140-626    H    0.22206985    0.44629986    0.69344049    0.10800000
opls_140-627    H    0.15430012    0.49235004    0.74924962    0.10800000
opls_140-628    H    0.20555012    0.53484003    0.77175979    0.16630000
opls_140-629    H    0.17628990    0.53006996    0.59983950    0.10960000
opls_144-630    H    0.80069985    0.56557990    0.79337020    0.11210000
opls_146-631    H    0.67088015    0.42700007    0.78721019    0.11380000
opls_146-632    H    0.74996009    0.42732998    0.42932038    0.11390000
opls_146-633    H    0.74198002    0.37290001    0.61213023    0.11280000
opls_702-634    H    0.95688989    0.79265983    0.58991998    0.04740000
opls_140-635    H    0.02886988    0.87396984    0.47183008    0.10240000
opls_140-636    H    0.02682990    0.85195985    0.66029031    0.12100000
opls_140-637    H    0.02487994    0.82456982    0.48663027    0.11000000
opls_140-638    H    0.96619002    0.80357004    0.29936971    0.10960000
opls_140-639    H    0.91963992    0.79965976    0.36707944    0.16720000
opls_140-640    H    0.96237979    0.84949976    0.31978982    0.16600000
opls_702-641    H    0.84210008    0.79708990    0.86778003    0.11060000
opls_140-642    H    0.90140992    0.82332999    0.14851037    0.12450000
opls_140-643    H    0.84991002    0.77958978    0.14293028    0.11000000
opls_140-644    H    0.88873008    0.77963992    0.02678046    0.10800000
opls_140-645    H    0.82095993    0.82568980    0.08258959    0.10800000
opls_140-646    H    0.87220993    0.86817978    0.10509976    0.16630000
opls_140-647    H    0.84295014    0.86341002    0.93317947    0.10960000
opls_144-648    H    0.10108990    0.56845979    0.12669963    0.11210000
opls_146-649    H    0.23967006    0.57721994    0.12053962    0.11380000
opls_146-650    H    0.23933995    0.65596987    0.76264981    0.11390000
opls_146-651    H    0.29377004    0.70241998    0.94545966    0.11280000
opls_702-652    H    0.87400994    0.49756987    0.92325058    0.04750000
opls_140-653    H    0.79269996    0.48823979    0.80515951    0.10250000
opls_140-654    H    0.81470989    0.50820979    0.99361974    0.12090000
opls_140-655    H    0.84209994    0.53365003    0.81995970    0.11000000
opls_140-656    H    0.86310011    0.49596008    0.63270031    0.10960000
opls_140-657    H    0.86701009    0.45331997    0.70041004    0.16710000
opls_140-658    H    0.81716998    0.44622006    0.65312042    0.16600000
opls_702-659    H    0.86958000    0.37835007    0.20110946    0.11060000
opls_140-660    H    0.84333996    0.41142009    0.48183980    0.12460000
opls_140-661    H    0.88708014    0.40366006    0.47625971    0.11000000
opls_140-662    H    0.88702998    0.44242994    0.36010989    0.10800000
opls_140-663    H    0.84098016    0.32861005    0.41592019    0.10810000
opls_140-664    H    0.79849003    0.33736989    0.43843036    0.16630000
opls_140-665    H    0.80325997    0.31287994    0.26651007    0.10960000
opls_144-666    H    0.76775992    0.90178976    0.46003023    0.11210000
opls_146-667    H    0.90634008    0.91054991    0.45387022    0.11380000
opls_146-668    H    0.90600996    0.98929984    0.09598041    0.11400000
opls_146-669    H    0.96044005    0.03574995    0.27879026    0.11290000
opls_702-670    H    0.54067996    0.83089984    0.25658001    0.04740000
opls_140-671    H    0.45936997    0.82156976    0.13849011    0.10240000
opls_140-672    H    0.48137991    0.84153976    0.32695034    0.12090000
opls_140-673    H    0.50876995    0.86698000    0.15329030    0.11000000
opls_140-674    H    0.52976997    0.82928974    0.96602973    0.10960000
opls_140-675    H    0.53367984    0.78664994    0.03373947    0.16710000
opls_140-676    H    0.48384000    0.77955003    0.98644985    0.16600000
opls_702-677    H    0.53625002    0.71168004    0.53444006    0.11060000
opls_140-678    H    0.51000982    0.74474975    0.81517040    0.12450000
opls_140-679    H    0.55374989    0.73699003    0.80959031    0.11000000
opls_140-680    H    0.55370000    0.77575991    0.69344049    0.10800000
opls_140-681    H    0.50764991    0.66194002    0.74924962    0.10820000
opls_140-682    H    0.46516005    0.67069986    0.77175979    0.16640000
opls_140-683    H    0.46992998    0.64620991    0.59983950    0.10960000
opls_144-684    H    0.43441989    0.23512982    0.79337020    0.11210000
opls_146-685    H    0.57300004    0.24388997    0.78721019    0.11380000
opls_146-686    H    0.57266993    0.32263990    0.42932038    0.11390000
opls_146-687    H    0.62710002    0.36909001    0.61213023    0.11280000
opls_702-688    H    0.20733992    0.16423990    0.58991998    0.04740000
opls_140-689    H    0.12603009    0.15491013    0.47183008    0.10240000
opls_140-690    H    0.14804003    0.17488013    0.66029031    0.12090000
opls_140-691    H    0.17542992    0.20032006    0.48663027    0.11000000
opls_140-692    H    0.19643009    0.16263011    0.29936971    0.10970000
opls_140-693    H    0.20034007    0.11999000    0.36707944    0.16710000
opls_140-694    H    0.15049997    0.11289009    0.31978982    0.16600000
opls_702-695    H    0.20290999    0.04502010    0.86778003    0.11060000
opls_140-696    H    0.17666994    0.07809012    0.14851037    0.12450000
opls_140-697    H    0.22041012    0.07033009    0.14293028    0.11000000
opls_140-698    H    0.22035996    0.10909996    0.02678046    0.10800000
opls_140-699    H    0.17431014    0.99528008    0.08258959    0.10800000
opls_140-700    H    0.13182002    0.00403992    0.10509976    0.16630000
opls_140-701    H    0.13658995    0.97954997    0.93317947    0.10960000
