#======================================================================
# Crystal Data Generated By AuToFF
#----------------------------------------------------------------------

data_AuToFF_phase_1

_cell_length_a                         46.4916
_cell_length_b                         46.4916
_cell_length_c                         6.8098
_cell_angle_alpha                      90.00
_cell_angle_beta                       90.00
_cell_angle_gamma                      90.00
_symmetry_space_group_name_H-M_alt     'P 1'
_symmetry_space_group_IT_number        1

loop_
_space_group_symop_operation_xyz
   'x, y, z'

loop_
   _atom_site_label
   _atom_site_type_symbol
   _atom_site_fract_x
   _atom_site_fract_y
   _atom_site_fract_z
   _atom_site_charge
opls_542-0    N    0.50471010    0.53960006    0.25000000    -0.23900000
opls_750-1    N    0.55714989    0.54304993    0.25000000    -0.78500000
opls_750-2    N    0.94198006    0.54304993    0.25000000    -0.78500000
opls_288-3    N    0.95813997    0.49302992    0.25000000    0.00000000
opls_750-4    N    0.95469009    0.44058991    0.25000000    -0.78500000
opls_750-5    N    0.72113995    0.42013009    0.25000000    -0.78500000
opls_750-6    N    0.77797989    0.42013009    0.25000000    -0.78500000
opls_288-7    N    0.54098999    0.00331995    0.25000000    0.00000000
opls_750-8    N    0.95467999    0.05577997    0.25000000    -0.78500000
MOF2_N_3-9    N    0.95815007    0.00333006    0.25000000    0.00000000
opls_750-10    N    0.72113995    0.07618989    0.25000000    -0.78500000
opls_750-11    N    0.77797989    0.07618989    0.25000000    -0.78500000
opls_542-12    N    0.49528990    0.46039994    0.25000000    -0.23900000
opls_750-13    N    0.44285011    0.45695007    0.25000000    -0.78500000
opls_750-14    N    0.05801994    0.45695007    0.25000000    -0.78500000
opls_288-15    N    0.04186003    0.50697008    0.25000000    0.00000000
opls_750-16    N    0.04530991    0.55941009    0.25000000    -0.78500000
opls_750-17    N    0.27886005    0.57986991    0.25000000    -0.78500000
opls_750-18    N    0.22202011    0.57986991    0.25000000    -0.78500000
opls_288-19    N    0.45901001    0.99668005    0.25000000    0.00000000
opls_750-20    N    0.04532001    0.94422003    0.25000000    -0.78500000
MOF2_N_3-21    N    0.04184993    0.99666994    0.25000000    0.00000000
opls_750-22    N    0.27886005    0.92380989    0.25000000    -0.78500000
opls_750-23    N    0.22202011    0.92380989    0.25000000    -0.78500000
opls_542-24    N    0.53960006    0.49528990    0.25000000    -0.23900000
opls_750-25    N    0.54304993    0.44285011    0.25000000    -0.78500000
opls_750-26    N    0.54304993    0.05801994    0.25000000    -0.78500000
opls_288-27    N    0.49302992    0.04186003    0.25000000    0.00000000
opls_750-28    N    0.44058991    0.04530991    0.25000000    -0.78500000
opls_750-29    N    0.42013009    0.27886005    0.25000000    -0.78500000
opls_750-30    N    0.42013009    0.22202011    0.25000000    -0.78500000
opls_288-31    N    0.00331995    0.45901001    0.25000000    0.00000000
opls_750-32    N    0.05577997    0.04532001    0.25000000    -0.78500000
MOF2_N_3-33    N    0.00333006    0.04184993    0.25000000    0.00000000
opls_750-34    N    0.07618989    0.27886005    0.25000000    -0.78500000
opls_750-35    N    0.07618989    0.22202011    0.25000000    -0.78500000
opls_542-36    N    0.46039994    0.50471010    0.25000000    -0.23900000
opls_750-37    N    0.45695007    0.55714989    0.25000000    -0.78500000
opls_750-38    N    0.45695007    0.94198006    0.25000000    -0.78500000
opls_288-39    N    0.50697008    0.95813997    0.25000000    0.00000000
opls_750-40    N    0.55941009    0.95469009    0.25000000    -0.78500000
opls_750-41    N    0.57986991    0.72113995    0.25000000    -0.78500000
opls_750-42    N    0.57986991    0.77797989    0.25000000    -0.78500000
opls_288-43    N    0.99668005    0.54098999    0.25000000    0.00000000
opls_750-44    N    0.94422003    0.95467999    0.25000000    -0.78500000
MOF2_N_3-45    N    0.99666994    0.95815007    0.25000000    0.00000000
opls_750-46    N    0.92380989    0.72113995    0.25000000    -0.78500000
opls_750-47    N    0.92380989    0.77797989    0.25000000    -0.78500000
opls_542-48    N    0.50471010    0.53960006    0.75000000    -0.23900000
opls_750-49    N    0.55714989    0.54304993    0.75000000    -0.78500000
opls_750-50    N    0.94198006    0.54304993    0.75000000    -0.78500000
opls_288-51    N    0.95813997    0.49302992    0.75000000    0.00000000
opls_750-52    N    0.95469009    0.44058991    0.75000000    -0.78500000
opls_750-53    N    0.72113995    0.42013009    0.75000000    -0.78500000
opls_750-54    N    0.77797989    0.42013009    0.75000000    -0.78500000
opls_288-55    N    0.54098999    0.00331995    0.75000000    0.00000000
opls_750-56    N    0.95467999    0.05577997    0.75000000    -0.78500000
MOF2_N_3-57    N    0.95815007    0.00333006    0.75000000    0.00000000
opls_750-58    N    0.72113995    0.07618989    0.75000000    -0.78500000
opls_750-59    N    0.77797989    0.07618989    0.75000000    -0.78500000
opls_542-60    N    0.49528990    0.46039994    0.75000000    -0.23900000
opls_750-61    N    0.44285011    0.45695007    0.75000000    -0.78500000
opls_750-62    N    0.05801994    0.45695007    0.75000000    -0.78500000
opls_288-63    N    0.04186003    0.50697008    0.75000000    0.00000000
opls_750-64    N    0.04530991    0.55941009    0.75000000    -0.78500000
opls_750-65    N    0.27886005    0.57986991    0.75000000    -0.78500000
opls_750-66    N    0.22202011    0.57986991    0.75000000    -0.78500000
opls_288-67    N    0.45901001    0.99668005    0.75000000    0.00000000
opls_750-68    N    0.04532001    0.94422003    0.75000000    -0.78500000
MOF2_N_3-69    N    0.04184993    0.99666994    0.75000000    0.00000000
opls_750-70    N    0.27886005    0.92380989    0.75000000    -0.78500000
opls_750-71    N    0.22202011    0.92380989    0.75000000    -0.78500000
opls_542-72    N    0.53960006    0.49528990    0.75000000    -0.23900000
opls_750-73    N    0.54304993    0.44285011    0.75000000    -0.78500000
opls_750-74    N    0.54304993    0.05801994    0.75000000    -0.78500000
opls_288-75    N    0.49302992    0.04186003    0.75000000    0.00000000
opls_750-76    N    0.44058991    0.04530991    0.75000000    -0.78500000
opls_750-77    N    0.42013009    0.27886005    0.75000000    -0.78500000
opls_750-78    N    0.42013009    0.22202011    0.75000000    -0.78500000
opls_288-79    N    0.00331995    0.45901001    0.75000000    0.00000000
opls_750-80    N    0.05577997    0.04532001    0.75000000    -0.78500000
MOF2_N_3-81    N    0.00333006    0.04184993    0.75000000    0.00000000
opls_750-82    N    0.07618989    0.27886005    0.75000000    -0.78500000
opls_750-83    N    0.07618989    0.22202011    0.75000000    -0.78500000
opls_542-84    N    0.46039994    0.50471010    0.75000000    -0.23900000
opls_750-85    N    0.45695007    0.55714989    0.75000000    -0.78500000
opls_750-86    N    0.45695007    0.94198006    0.75000000    -0.78500000
opls_288-87    N    0.50697008    0.95813997    0.75000000    0.00000000
opls_750-88    N    0.55941009    0.95469009    0.75000000    -0.78500000
opls_750-89    N    0.57986991    0.72113995    0.75000000    -0.78500000
opls_750-90    N    0.57986991    0.77797989    0.75000000    -0.78500000
opls_288-91    N    0.99668005    0.54098999    0.75000000    0.00000000
opls_750-92    N    0.94422003    0.95467999    0.75000000    -0.78500000
MOF2_N_3-93    N    0.99666994    0.95815007    0.75000000    0.00000000
opls_750-94    N    0.92380989    0.72113995    0.75000000    -0.78500000
opls_750-95    N    0.92380989    0.77797989    0.75000000    -0.78500000
opls_543-96    C    0.56171997    0.51488011    0.25000000    -0.16300000
opls_700-97    C    0.59054991    0.50227009    0.25000000    0.61900000
opls_700-98    C    0.58679998    0.47198999    0.25000000    0.61900000
opls_543-99    C    0.55575997    0.46678991    0.25000000    -0.16300000
opls_145-100    C    0.61008999    0.45272006    0.25000000    -0.11500000
opls_166-101    C    0.63694001    0.46578005    0.25000000    0.15000000
opls_166-102    C    0.64070004    0.49609994    0.25000000    0.15000000
opls_145-103    C    0.61781999    0.51529997    0.25000000    -0.11500000
opls_507-104    C    0.93740998    0.51488011    0.25000000    0.50400000
opls_507-105    C    0.94336999    0.46678991    0.25000000    0.50400000
opls_700-106    C    0.91234008    0.47198999    0.25000000    0.61900000
opls_700-107    C    0.90858994    0.50225998    0.25000000    0.61900000
opls_145-108    C    0.88130006    0.51529007    0.25000000    -0.11500000
opls_166-109    C    0.85842991    0.49609005    0.25000000    0.15000000
opls_166-110    C    0.86218994    0.46576995    0.25000000    0.15000000
opls_145-111    C    0.88903996    0.45270995    0.25000000    -0.11500000
opls_507-112    C    0.98285002    0.43602995    0.25000000    0.50400000
opls_145-113    C    0.98246006    0.37990992    0.25000000    -0.11500000
opls_166-114    C    0.00168009    0.35703998    0.25000000    0.15000000
opls_145-115    C    0.78104991    0.47298996    0.25000000    -0.11500000
opls_716-116    C    0.76545010    0.44601993    0.25000000    -0.09900000
opls_716-117    C    0.73366995    0.44601993    0.25000000    -0.09900000
opls_145-118    C    0.71808004    0.47300007    0.25000000    -0.11500000
opls_145-119    C    0.73413004    0.49816010    0.25000000    -0.11500000
opls_145-120    C    0.76501002    0.49814999    0.25000000    -0.11500000
opls_507-121    C    0.55575007    0.02957997    0.25000000    0.50400000
opls_700-122    C    0.58679009    0.02436999    0.25000000    0.61900000
opls_166-123    C    0.63694001    0.03055993    0.25000000    0.15000000
opls_145-124    C    0.61008999    0.04363993    0.25000000    -0.11500000
opls_507-125    C    0.94338009    0.02957997    0.25000000    0.50400000
opls_716-126    C    0.59052001    0.99410001    0.25000000    -0.09900000
opls_700-127    C    0.91234997    0.02436010    0.25000000    0.61900000
opls_700-128    C    0.90862005    0.99408990    0.25000000    0.61900000
opls_507-129    C    0.93744999    0.98148010    0.25000000    0.50400000
opls_145-130    C    0.88134007    0.98104002    0.25000000    -0.11500000
opls_166-131    C    0.85844991    0.00022993    0.25000000    0.15000000
opls_166-132    C    0.86220005    0.03055003    0.25000000    0.15000000
opls_145-133    C    0.88903996    0.04361992    0.25000000    -0.11500000
opls_145-134    C    0.78104991    0.02331991    0.25000000    -0.11500000
opls_145-135    C    0.76499991    0.99816999    0.25000000    -0.11500000
opls_145-136    C    0.73411993    0.99816999    0.25000000    -0.11500000
opls_145-137    C    0.71808004    0.02331991    0.25000000    -0.11500000
opls_716-138    C    0.73368006    0.05030005    0.25000000    -0.09900000
opls_716-139    C    0.76545010    0.05030005    0.25000000    -0.09900000
opls_543-140    C    0.43828003    0.48511989    0.25000000    -0.16300000
opls_700-141    C    0.40945009    0.49772991    0.25000000    0.61900000
opls_700-142    C    0.41320002    0.52801001    0.25000000    0.61900000
opls_543-143    C    0.44424003    0.53321009    0.25000000    -0.16300000
opls_145-144    C    0.38991001    0.54727994    0.25000000    -0.11500000
opls_166-145    C    0.36305999    0.53421995    0.25000000    0.15000000
opls_166-146    C    0.35929996    0.50390006    0.25000000    0.15000000
opls_145-147    C    0.38218001    0.48470003    0.25000000    -0.11500000
opls_507-148    C    0.06259002    0.48511989    0.25000000    0.50400000
opls_507-149    C    0.05663001    0.53321009    0.25000000    0.50400000
opls_700-150    C    0.08765992    0.52801001    0.25000000    0.61900000
opls_700-151    C    0.09141006    0.49774002    0.25000000    0.61900000
opls_145-152    C    0.11869994    0.48470993    0.25000000    -0.11500000
opls_166-153    C    0.14157009    0.50390995    0.25000000    0.15000000
opls_166-154    C    0.13781006    0.53423005    0.25000000    0.15000000
opls_145-155    C    0.11096004    0.54729005    0.25000000    -0.11500000
opls_507-156    C    0.01714998    0.56397005    0.25000000    0.50400000
opls_145-157    C    0.01753994    0.62009008    0.25000000    -0.11500000
opls_166-158    C    0.99831991    0.64296002    0.25000000    0.15000000
opls_145-159    C    0.21895009    0.52701004    0.25000000    -0.11500000
opls_716-160    C    0.23454990    0.55398007    0.25000000    -0.09900000
opls_716-161    C    0.26633005    0.55398007    0.25000000    -0.09900000
opls_145-162    C    0.28191996    0.52699993    0.25000000    -0.11500000
opls_145-163    C    0.26586996    0.50183990    0.25000000    -0.11500000
opls_145-164    C    0.23498998    0.50185001    0.25000000    -0.11500000
opls_507-165    C    0.44424993    0.97042003    0.25000000    0.50400000
opls_700-166    C    0.41320991    0.97563001    0.25000000    0.61900000
opls_166-167    C    0.36305999    0.96944007    0.25000000    0.15000000
opls_145-168    C    0.38991001    0.95636007    0.25000000    -0.11500000
opls_507-169    C    0.05661991    0.97042003    0.25000000    0.50400000
opls_716-170    C    0.40947999    0.00589999    0.25000000    -0.09900000
opls_700-171    C    0.08765003    0.97563990    0.25000000    0.61900000
opls_700-172    C    0.09137995    0.00591010    0.25000000    0.61900000
opls_507-173    C    0.06255001    0.01851990    0.25000000    0.50400000
opls_145-174    C    0.11865993    0.01895998    0.25000000    -0.11500000
opls_166-175    C    0.14155009    0.99977007    0.25000000    0.15000000
opls_166-176    C    0.13779995    0.96944997    0.25000000    0.15000000
opls_145-177    C    0.11096004    0.95638008    0.25000000    -0.11500000
opls_145-178    C    0.21895009    0.97668009    0.25000000    -0.11500000
opls_145-179    C    0.23500009    0.00183001    0.25000000    -0.11500000
opls_145-180    C    0.26588007    0.00183001    0.25000000    -0.11500000
opls_145-181    C    0.28191996    0.97668009    0.25000000    -0.11500000
opls_716-182    C    0.26631994    0.94969995    0.25000000    -0.09900000
opls_716-183    C    0.23454990    0.94969995    0.25000000    -0.09900000
opls_543-184    C    0.51488011    0.43828003    0.25000000    -0.16300000
opls_700-185    C    0.50227009    0.40945009    0.25000000    0.61900000
opls_700-186    C    0.47198999    0.41320002    0.25000000    0.61900000
opls_543-187    C    0.46678991    0.44424003    0.25000000    -0.16300000
opls_145-188    C    0.45272006    0.38991001    0.25000000    -0.11500000
opls_166-189    C    0.46578005    0.36305999    0.25000000    0.15000000
opls_166-190    C    0.49609994    0.35929996    0.25000000    0.15000000
opls_145-191    C    0.51529997    0.38218001    0.25000000    -0.11500000
opls_507-192    C    0.51488011    0.06259002    0.25000000    0.50400000
opls_507-193    C    0.46678991    0.05663001    0.25000000    0.50400000
opls_700-194    C    0.47198999    0.08765992    0.25000000    0.61900000
opls_700-195    C    0.50225998    0.09141006    0.25000000    0.61900000
opls_145-196    C    0.51529007    0.11869994    0.25000000    -0.11500000
opls_166-197    C    0.49609005    0.14157009    0.25000000    0.15000000
opls_166-198    C    0.46576995    0.13781006    0.25000000    0.15000000
opls_145-199    C    0.45270995    0.11096004    0.25000000    -0.11500000
opls_507-200    C    0.43602995    0.01714998    0.25000000    0.50400000
opls_145-201    C    0.37990992    0.01753994    0.25000000    -0.11500000
opls_166-202    C    0.35703998    0.99831991    0.25000000    0.15000000
opls_145-203    C    0.47298996    0.21895009    0.25000000    -0.11500000
opls_716-204    C    0.44601993    0.23454990    0.25000000    -0.09900000
opls_716-205    C    0.44601993    0.26633005    0.25000000    -0.09900000
opls_145-206    C    0.47300007    0.28191996    0.25000000    -0.11500000
opls_145-207    C    0.49816010    0.26586996    0.25000000    -0.11500000
opls_145-208    C    0.49814999    0.23498998    0.25000000    -0.11500000
opls_507-209    C    0.02957997    0.44424993    0.25000000    0.50400000
opls_700-210    C    0.02436999    0.41320991    0.25000000    0.61900000
opls_166-211    C    0.03055993    0.36305999    0.25000000    0.15000000
opls_145-212    C    0.04363993    0.38991001    0.25000000    -0.11500000
opls_507-213    C    0.02957997    0.05661991    0.25000000    0.50400000
opls_716-214    C    0.99410001    0.40947999    0.25000000    -0.09900000
opls_700-215    C    0.02436010    0.08765003    0.25000000    0.61900000
opls_700-216    C    0.99408990    0.09137995    0.25000000    0.61900000
opls_507-217    C    0.98148010    0.06255001    0.25000000    0.50400000
opls_145-218    C    0.98104002    0.11865993    0.25000000    -0.11500000
opls_166-219    C    0.00022993    0.14155009    0.25000000    0.15000000
opls_166-220    C    0.03055003    0.13779995    0.25000000    0.15000000
opls_145-221    C    0.04361992    0.11096004    0.25000000    -0.11500000
opls_145-222    C    0.02331991    0.21895009    0.25000000    -0.11500000
opls_145-223    C    0.99816999    0.23500009    0.25000000    -0.11500000
opls_145-224    C    0.99816999    0.26588007    0.25000000    -0.11500000
opls_145-225    C    0.02331991    0.28191996    0.25000000    -0.11500000
opls_716-226    C    0.05030005    0.26631994    0.25000000    -0.09900000
opls_716-227    C    0.05030005    0.23454990    0.25000000    -0.09900000
opls_543-228    C    0.48511989    0.56171997    0.25000000    -0.16300000
opls_700-229    C    0.49772991    0.59054991    0.25000000    0.61900000
opls_700-230    C    0.52801001    0.58679998    0.25000000    0.61900000
opls_543-231    C    0.53321009    0.55575997    0.25000000    -0.16300000
opls_145-232    C    0.54727994    0.61008999    0.25000000    -0.11500000
opls_166-233    C    0.53421995    0.63694001    0.25000000    0.15000000
opls_166-234    C    0.50390006    0.64070004    0.25000000    0.15000000
opls_145-235    C    0.48470003    0.61781999    0.25000000    -0.11500000
opls_507-236    C    0.48511989    0.93740998    0.25000000    0.50400000
opls_507-237    C    0.53321009    0.94336999    0.25000000    0.50400000
opls_700-238    C    0.52801001    0.91234008    0.25000000    0.61900000
opls_700-239    C    0.49774002    0.90858994    0.25000000    0.61900000
opls_145-240    C    0.48470993    0.88130006    0.25000000    -0.11500000
opls_166-241    C    0.50390995    0.85842991    0.25000000    0.15000000
opls_166-242    C    0.53423005    0.86218994    0.25000000    0.15000000
opls_145-243    C    0.54729005    0.88903996    0.25000000    -0.11500000
opls_507-244    C    0.56397005    0.98285002    0.25000000    0.50400000
opls_145-245    C    0.62009008    0.98246006    0.25000000    -0.11500000
opls_166-246    C    0.64296002    0.00168009    0.25000000    0.15000000
opls_145-247    C    0.52701004    0.78104991    0.25000000    -0.11500000
opls_716-248    C    0.55398007    0.76545010    0.25000000    -0.09900000
opls_716-249    C    0.55398007    0.73366995    0.25000000    -0.09900000
opls_145-250    C    0.52699993    0.71808004    0.25000000    -0.11500000
opls_145-251    C    0.50183990    0.73413004    0.25000000    -0.11500000
opls_145-252    C    0.50185001    0.76501002    0.25000000    -0.11500000
opls_507-253    C    0.97042003    0.55575007    0.25000000    0.50400000
opls_700-254    C    0.97563001    0.58679009    0.25000000    0.61900000
opls_166-255    C    0.96944007    0.63694001    0.25000000    0.15000000
opls_145-256    C    0.95636007    0.61008999    0.25000000    -0.11500000
opls_507-257    C    0.97042003    0.94338009    0.25000000    0.50400000
opls_716-258    C    0.00589999    0.59052001    0.25000000    -0.09900000
opls_700-259    C    0.97563990    0.91234997    0.25000000    0.61900000
opls_700-260    C    0.00591010    0.90862005    0.25000000    0.61900000
opls_507-261    C    0.01851990    0.93744999    0.25000000    0.50400000
opls_145-262    C    0.01895998    0.88134007    0.25000000    -0.11500000
opls_166-263    C    0.99977007    0.85844991    0.25000000    0.15000000
opls_166-264    C    0.96944997    0.86220005    0.25000000    0.15000000
opls_145-265    C    0.95638008    0.88903996    0.25000000    -0.11500000
opls_145-266    C    0.97668009    0.78104991    0.25000000    -0.11500000
opls_145-267    C    0.00183001    0.76499991    0.25000000    -0.11500000
opls_145-268    C    0.00183001    0.73411993    0.25000000    -0.11500000
opls_145-269    C    0.97668009    0.71808004    0.25000000    -0.11500000
opls_716-270    C    0.94969995    0.73368006    0.25000000    -0.09900000
opls_716-271    C    0.94969995    0.76545010    0.25000000    -0.09900000
opls_543-272    C    0.56171997    0.51488011    0.75000000    -0.16300000
opls_700-273    C    0.59054991    0.50227009    0.75000000    0.61900000
opls_700-274    C    0.58679998    0.47198999    0.75000000    0.61900000
opls_543-275    C    0.55575997    0.46678991    0.75000000    -0.16300000
opls_145-276    C    0.61008999    0.45272006    0.75000000    -0.11500000
opls_166-277    C    0.63694001    0.46578005    0.75000000    0.15000000
opls_166-278    C    0.64070004    0.49609994    0.75000000    0.15000000
opls_145-279    C    0.61781999    0.51529997    0.75000000    -0.11500000
opls_507-280    C    0.93740998    0.51488011    0.75000000    0.50400000
opls_507-281    C    0.94336999    0.46678991    0.75000000    0.50400000
opls_700-282    C    0.91234008    0.47198999    0.75000000    0.61900000
opls_700-283    C    0.90858994    0.50225998    0.75000000    0.61900000
opls_145-284    C    0.88130006    0.51529007    0.75000000    -0.11500000
opls_166-285    C    0.85842991    0.49609005    0.75000000    0.15000000
opls_166-286    C    0.86218994    0.46576995    0.75000000    0.15000000
opls_145-287    C    0.88903996    0.45270995    0.75000000    -0.11500000
opls_507-288    C    0.98285002    0.43602995    0.75000000    0.50400000
opls_145-289    C    0.98246006    0.37990992    0.75000000    -0.11500000
opls_166-290    C    0.00168009    0.35703998    0.75000000    0.15000000
opls_145-291    C    0.78104991    0.47298996    0.75000000    -0.11500000
opls_716-292    C    0.76545010    0.44601993    0.75000000    -0.09900000
opls_716-293    C    0.73366995    0.44601993    0.75000000    -0.09900000
opls_145-294    C    0.71808004    0.47300007    0.75000000    -0.11500000
opls_145-295    C    0.73413004    0.49816010    0.75000000    -0.11500000
opls_145-296    C    0.76501002    0.49814999    0.75000000    -0.11500000
opls_507-297    C    0.55575007    0.02957997    0.75000000    0.50400000
opls_700-298    C    0.58679009    0.02436999    0.75000000    0.61900000
opls_166-299    C    0.63694001    0.03055993    0.75000000    0.15000000
opls_145-300    C    0.61008999    0.04363993    0.75000000    -0.11500000
opls_507-301    C    0.94338009    0.02957997    0.75000000    0.50400000
opls_716-302    C    0.59052001    0.99410001    0.75000000    -0.09900000
opls_700-303    C    0.91234997    0.02436010    0.75000000    0.61900000
opls_700-304    C    0.90862005    0.99408990    0.75000000    0.61900000
opls_507-305    C    0.93744999    0.98148010    0.75000000    0.50400000
opls_145-306    C    0.88134007    0.98104002    0.75000000    -0.11500000
opls_166-307    C    0.85844991    0.00022993    0.75000000    0.15000000
opls_166-308    C    0.86220005    0.03055003    0.75000000    0.15000000
opls_145-309    C    0.88903996    0.04361992    0.75000000    -0.11500000
opls_145-310    C    0.78104991    0.02331991    0.75000000    -0.11500000
opls_145-311    C    0.76499991    0.99816999    0.75000000    -0.11500000
opls_145-312    C    0.73411993    0.99816999    0.75000000    -0.11500000
opls_145-313    C    0.71808004    0.02331991    0.75000000    -0.11500000
opls_716-314    C    0.73368006    0.05030005    0.75000000    -0.09900000
opls_716-315    C    0.76545010    0.05030005    0.75000000    -0.09900000
opls_543-316    C    0.43828003    0.48511989    0.75000000    -0.16300000
opls_700-317    C    0.40945009    0.49772991    0.75000000    0.61900000
opls_700-318    C    0.41320002    0.52801001    0.75000000    0.61900000
opls_543-319    C    0.44424003    0.53321009    0.75000000    -0.16300000
opls_145-320    C    0.38991001    0.54727994    0.75000000    -0.11500000
opls_166-321    C    0.36305999    0.53421995    0.75000000    0.15000000
opls_166-322    C    0.35929996    0.50390006    0.75000000    0.15000000
opls_145-323    C    0.38218001    0.48470003    0.75000000    -0.11500000
opls_507-324    C    0.06259002    0.48511989    0.75000000    0.50400000
opls_507-325    C    0.05663001    0.53321009    0.75000000    0.50400000
opls_700-326    C    0.08765992    0.52801001    0.75000000    0.61900000
opls_700-327    C    0.09141006    0.49774002    0.75000000    0.61900000
opls_145-328    C    0.11869994    0.48470993    0.75000000    -0.11500000
opls_166-329    C    0.14157009    0.50390995    0.75000000    0.15000000
opls_166-330    C    0.13781006    0.53423005    0.75000000    0.15000000
opls_145-331    C    0.11096004    0.54729005    0.75000000    -0.11500000
opls_507-332    C    0.01714998    0.56397005    0.75000000    0.50400000
opls_145-333    C    0.01753994    0.62009008    0.75000000    -0.11500000
opls_166-334    C    0.99831991    0.64296002    0.75000000    0.15000000
opls_145-335    C    0.21895009    0.52701004    0.75000000    -0.11500000
opls_716-336    C    0.23454990    0.55398007    0.75000000    -0.09900000
opls_716-337    C    0.26633005    0.55398007    0.75000000    -0.09900000
opls_145-338    C    0.28191996    0.52699993    0.75000000    -0.11500000
opls_145-339    C    0.26586996    0.50183990    0.75000000    -0.11500000
opls_145-340    C    0.23498998    0.50185001    0.75000000    -0.11500000
opls_507-341    C    0.44424993    0.97042003    0.75000000    0.50400000
opls_700-342    C    0.41320991    0.97563001    0.75000000    0.61900000
opls_166-343    C    0.36305999    0.96944007    0.75000000    0.15000000
opls_145-344    C    0.38991001    0.95636007    0.75000000    -0.11500000
opls_507-345    C    0.05661991    0.97042003    0.75000000    0.50400000
opls_716-346    C    0.40947999    0.00589999    0.75000000    -0.09900000
opls_700-347    C    0.08765003    0.97563990    0.75000000    0.61900000
opls_700-348    C    0.09137995    0.00591010    0.75000000    0.61900000
opls_507-349    C    0.06255001    0.01851990    0.75000000    0.50400000
opls_145-350    C    0.11865993    0.01895998    0.75000000    -0.11500000
opls_166-351    C    0.14155009    0.99977007    0.75000000    0.15000000
opls_166-352    C    0.13779995    0.96944997    0.75000000    0.15000000
opls_145-353    C    0.11096004    0.95638008    0.75000000    -0.11500000
opls_145-354    C    0.21895009    0.97668009    0.75000000    -0.11500000
opls_145-355    C    0.23500009    0.00183001    0.75000000    -0.11500000
opls_145-356    C    0.26588007    0.00183001    0.75000000    -0.11500000
opls_145-357    C    0.28191996    0.97668009    0.75000000    -0.11500000
opls_716-358    C    0.26631994    0.94969995    0.75000000    -0.09900000
opls_716-359    C    0.23454990    0.94969995    0.75000000    -0.09900000
opls_543-360    C    0.51488011    0.43828003    0.75000000    -0.16300000
opls_700-361    C    0.50227009    0.40945009    0.75000000    0.61900000
opls_700-362    C    0.47198999    0.41320002    0.75000000    0.61900000
opls_543-363    C    0.46678991    0.44424003    0.75000000    -0.16300000
opls_145-364    C    0.45272006    0.38991001    0.75000000    -0.11500000
opls_166-365    C    0.46578005    0.36305999    0.75000000    0.15000000
opls_166-366    C    0.49609994    0.35929996    0.75000000    0.15000000
opls_145-367    C    0.51529997    0.38218001    0.75000000    -0.11500000
opls_507-368    C    0.51488011    0.06259002    0.75000000    0.50400000
opls_507-369    C    0.46678991    0.05663001    0.75000000    0.50400000
opls_700-370    C    0.47198999    0.08765992    0.75000000    0.61900000
opls_700-371    C    0.50225998    0.09141006    0.75000000    0.61900000
opls_145-372    C    0.51529007    0.11869994    0.75000000    -0.11500000
opls_166-373    C    0.49609005    0.14157009    0.75000000    0.15000000
opls_166-374    C    0.46576995    0.13781006    0.75000000    0.15000000
opls_145-375    C    0.45270995    0.11096004    0.75000000    -0.11500000
opls_507-376    C    0.43602995    0.01714998    0.75000000    0.50400000
opls_145-377    C    0.37990992    0.01753994    0.75000000    -0.11500000
opls_166-378    C    0.35703998    0.99831991    0.75000000    0.15000000
opls_145-379    C    0.47298996    0.21895009    0.75000000    -0.11500000
opls_716-380    C    0.44601993    0.23454990    0.75000000    -0.09900000
opls_716-381    C    0.44601993    0.26633005    0.75000000    -0.09900000
opls_145-382    C    0.47300007    0.28191996    0.75000000    -0.11500000
opls_145-383    C    0.49816010    0.26586996    0.75000000    -0.11500000
opls_145-384    C    0.49814999    0.23498998    0.75000000    -0.11500000
opls_507-385    C    0.02957997    0.44424993    0.75000000    0.50400000
opls_700-386    C    0.02436999    0.41320991    0.75000000    0.61900000
opls_166-387    C    0.03055993    0.36305999    0.75000000    0.15000000
opls_145-388    C    0.04363993    0.38991001    0.75000000    -0.11500000
opls_507-389    C    0.02957997    0.05661991    0.75000000    0.50400000
opls_716-390    C    0.99410001    0.40947999    0.75000000    -0.09900000
opls_700-391    C    0.02436010    0.08765003    0.75000000    0.61900000
opls_700-392    C    0.99408990    0.09137995    0.75000000    0.61900000
opls_507-393    C    0.98148010    0.06255001    0.75000000    0.50400000
opls_145-394    C    0.98104002    0.11865993    0.75000000    -0.11500000
opls_166-395    C    0.00022993    0.14155009    0.75000000    0.15000000
opls_166-396    C    0.03055003    0.13779995    0.75000000    0.15000000
opls_145-397    C    0.04361992    0.11096004    0.75000000    -0.11500000
opls_145-398    C    0.02331991    0.21895009    0.75000000    -0.11500000
opls_145-399    C    0.99816999    0.23500009    0.75000000    -0.11500000
opls_145-400    C    0.99816999    0.26588007    0.75000000    -0.11500000
opls_145-401    C    0.02331991    0.28191996    0.75000000    -0.11500000
opls_716-402    C    0.05030005    0.26631994    0.75000000    -0.09900000
opls_716-403    C    0.05030005    0.23454990    0.75000000    -0.09900000
opls_543-404    C    0.48511989    0.56171997    0.75000000    -0.16300000
opls_700-405    C    0.49772991    0.59054991    0.75000000    0.61900000
opls_700-406    C    0.52801001    0.58679998    0.75000000    0.61900000
opls_543-407    C    0.53321009    0.55575997    0.75000000    -0.16300000
opls_145-408    C    0.54727994    0.61008999    0.75000000    -0.11500000
opls_166-409    C    0.53421995    0.63694001    0.75000000    0.15000000
opls_166-410    C    0.50390006    0.64070004    0.75000000    0.15000000
opls_145-411    C    0.48470003    0.61781999    0.75000000    -0.11500000
opls_507-412    C    0.48511989    0.93740998    0.75000000    0.50400000
opls_507-413    C    0.53321009    0.94336999    0.75000000    0.50400000
opls_700-414    C    0.52801001    0.91234008    0.75000000    0.61900000
opls_700-415    C    0.49774002    0.90858994    0.75000000    0.61900000
opls_145-416    C    0.48470993    0.88130006    0.75000000    -0.11500000
opls_166-417    C    0.50390995    0.85842991    0.75000000    0.15000000
opls_166-418    C    0.53423005    0.86218994    0.75000000    0.15000000
opls_145-419    C    0.54729005    0.88903996    0.75000000    -0.11500000
opls_507-420    C    0.56397005    0.98285002    0.75000000    0.50400000
opls_145-421    C    0.62009008    0.98246006    0.75000000    -0.11500000
opls_166-422    C    0.64296002    0.00168009    0.75000000    0.15000000
opls_145-423    C    0.52701004    0.78104991    0.75000000    -0.11500000
opls_716-424    C    0.55398007    0.76545010    0.75000000    -0.09900000
opls_716-425    C    0.55398007    0.73366995    0.75000000    -0.09900000
opls_145-426    C    0.52699993    0.71808004    0.75000000    -0.11500000
opls_145-427    C    0.50183990    0.73413004    0.75000000    -0.11500000
opls_145-428    C    0.50185001    0.76501002    0.75000000    -0.11500000
opls_507-429    C    0.97042003    0.55575007    0.75000000    0.50400000
opls_700-430    C    0.97563001    0.58679009    0.75000000    0.61900000
opls_166-431    C    0.96944007    0.63694001    0.75000000    0.15000000
opls_145-432    C    0.95636007    0.61008999    0.75000000    -0.11500000
opls_507-433    C    0.97042003    0.94338009    0.75000000    0.50400000
opls_716-434    C    0.00589999    0.59052001    0.75000000    -0.09900000
opls_700-435    C    0.97563990    0.91234997    0.75000000    0.61900000
opls_700-436    C    0.00591010    0.90862005    0.75000000    0.61900000
opls_507-437    C    0.01851990    0.93744999    0.75000000    0.50400000
opls_145-438    C    0.01895998    0.88134007    0.75000000    -0.11500000
opls_166-439    C    0.99977007    0.85844991    0.75000000    0.15000000
opls_166-440    C    0.96944997    0.86220005    0.75000000    0.15000000
opls_145-441    C    0.95638008    0.88903996    0.75000000    -0.11500000
opls_145-442    C    0.97668009    0.78104991    0.75000000    -0.11500000
opls_145-443    C    0.00183001    0.76499991    0.75000000    -0.11500000
opls_145-444    C    0.00183001    0.73411993    0.75000000    -0.11500000
opls_145-445    C    0.97668009    0.71808004    0.75000000    -0.11500000
opls_716-446    C    0.94969995    0.73368006    0.75000000    -0.09900000
opls_716-447    C    0.94969995    0.76545010    0.75000000    -0.09900000
opls_167-448    O    0.67044004    0.50215996    0.25000000    -0.58500000
opls_167-449    O    0.66427010    0.45250002    0.25000000    -0.58500000
opls_167-450    O    0.82868991    0.50213996    0.25000000    -0.58500000
opls_167-451    O    0.83486006    0.45248002    0.25000000    -0.58500000
opls_167-452    O    0.67042993    0.99416991    0.25000000    -0.58500000
opls_167-453    O    0.66428000    0.04383996    0.25000000    -0.58500000
opls_167-454    O    0.83484006    0.04381996    0.25000000    -0.58500000
opls_167-455    O    0.82870002    0.99414991    0.25000000    -0.58500000
opls_167-456    O    0.32955996    0.49784004    0.25000000    -0.58500000
opls_167-457    O    0.33572990    0.54749998    0.25000000    -0.58500000
opls_167-458    O    0.17131009    0.49786004    0.25000000    -0.58500000
opls_167-459    O    0.16513994    0.54751998    0.25000000    -0.58500000
opls_167-460    O    0.32957007    0.00583009    0.25000000    -0.58500000
opls_167-461    O    0.33572000    0.95616004    0.25000000    -0.58500000
opls_167-462    O    0.16515994    0.95618004    0.25000000    -0.58500000
opls_167-463    O    0.17129998    0.00585009    0.25000000    -0.58500000
opls_167-464    O    0.50215996    0.32955996    0.25000000    -0.58500000
opls_167-465    O    0.45250002    0.33572990    0.25000000    -0.58500000
opls_167-466    O    0.50213996    0.17131009    0.25000000    -0.58500000
opls_167-467    O    0.45248002    0.16513994    0.25000000    -0.58500000
opls_167-468    O    0.99416991    0.32957007    0.25000000    -0.58500000
opls_167-469    O    0.04383996    0.33572000    0.25000000    -0.58500000
opls_167-470    O    0.04381996    0.16515994    0.25000000    -0.58500000
opls_167-471    O    0.99414991    0.17129998    0.25000000    -0.58500000
opls_167-472    O    0.49784004    0.67044004    0.25000000    -0.58500000
opls_167-473    O    0.54749998    0.66427010    0.25000000    -0.58500000
opls_167-474    O    0.49786004    0.82868991    0.25000000    -0.58500000
opls_167-475    O    0.54751998    0.83486006    0.25000000    -0.58500000
opls_167-476    O    0.00583009    0.67042993    0.25000000    -0.58500000
opls_167-477    O    0.95616004    0.66428000    0.25000000    -0.58500000
opls_167-478    O    0.95618004    0.83484006    0.25000000    -0.58500000
opls_167-479    O    0.00585009    0.82870002    0.25000000    -0.58500000
opls_167-480    O    0.67044004    0.50215996    0.75000000    -0.58500000
opls_167-481    O    0.66427010    0.45250002    0.75000000    -0.58500000
opls_167-482    O    0.82868991    0.50213996    0.75000000    -0.58500000
opls_167-483    O    0.83486006    0.45248002    0.75000000    -0.58500000
opls_167-484    O    0.67042993    0.99416991    0.75000000    -0.58500000
opls_167-485    O    0.66428000    0.04383996    0.75000000    -0.58500000
opls_167-486    O    0.83484006    0.04381996    0.75000000    -0.58500000
opls_167-487    O    0.82870002    0.99414991    0.75000000    -0.58500000
opls_167-488    O    0.32955996    0.49784004    0.75000000    -0.58500000
opls_167-489    O    0.33572990    0.54749998    0.75000000    -0.58500000
opls_167-490    O    0.17131009    0.49786004    0.75000000    -0.58500000
opls_167-491    O    0.16513994    0.54751998    0.75000000    -0.58500000
opls_167-492    O    0.32957007    0.00583009    0.75000000    -0.58500000
opls_167-493    O    0.33572000    0.95616004    0.75000000    -0.58500000
opls_167-494    O    0.16515994    0.95618004    0.75000000    -0.58500000
opls_167-495    O    0.17129998    0.00585009    0.75000000    -0.58500000
opls_167-496    O    0.50215996    0.32955996    0.75000000    -0.58500000
opls_167-497    O    0.45250002    0.33572990    0.75000000    -0.58500000
opls_167-498    O    0.50213996    0.17131009    0.75000000    -0.58500000
opls_167-499    O    0.45248002    0.16513994    0.75000000    -0.58500000
opls_167-500    O    0.99416991    0.32957007    0.75000000    -0.58500000
opls_167-501    O    0.04383996    0.33572000    0.75000000    -0.58500000
opls_167-502    O    0.04381996    0.16515994    0.75000000    -0.58500000
opls_167-503    O    0.99414991    0.17129998    0.75000000    -0.58500000
opls_167-504    O    0.49784004    0.67044004    0.75000000    -0.58500000
opls_167-505    O    0.54749998    0.66427010    0.75000000    -0.58500000
opls_167-506    O    0.49786004    0.82868991    0.75000000    -0.58500000
opls_167-507    O    0.54751998    0.83486006    0.75000000    -0.58500000
opls_167-508    O    0.00583009    0.67042993    0.75000000    -0.58500000
opls_167-509    O    0.95616004    0.66428000    0.75000000    -0.58500000
opls_167-510    O    0.95618004    0.83484006    0.75000000    -0.58500000
opls_167-511    O    0.00585009    0.82870002    0.75000000    -0.58500000
MOF2_B_2-512    B    0.68502009    0.47498000    0.25000000    0.00000000
MOF2_B_2-513    B    0.81411997    0.47497010    0.25000000    0.00000000
MOF2_B_2-514    B    0.68500998    0.02135009    0.25000000    0.00000000
MOF2_B_2-515    B    0.81413008    0.02131998    0.25000000    0.00000000
MOF2_B_2-516    B    0.31497991    0.52502000    0.25000000    0.00000000
MOF2_B_2-517    B    0.18588003    0.52502990    0.25000000    0.00000000
MOF2_B_2-518    B    0.31499002    0.97864991    0.25000000    0.00000000
MOF2_B_2-519    B    0.18586992    0.97868002    0.25000000    0.00000000
MOF2_B_2-520    B    0.47498000    0.31497991    0.25000000    0.00000000
MOF2_B_2-521    B    0.47497010    0.18588003    0.25000000    0.00000000
MOF2_B_2-522    B    0.02135009    0.31499002    0.25000000    0.00000000
MOF2_B_2-523    B    0.02131998    0.18586992    0.25000000    0.00000000
MOF2_B_2-524    B    0.52502000    0.68502009    0.25000000    0.00000000
MOF2_B_2-525    B    0.52502990    0.81411997    0.25000000    0.00000000
MOF2_B_2-526    B    0.97864991    0.68500998    0.25000000    0.00000000
MOF2_B_2-527    B    0.97868002    0.81413008    0.25000000    0.00000000
MOF2_B_2-528    B    0.68502009    0.47498000    0.75000000    0.00000000
MOF2_B_2-529    B    0.81411997    0.47497010    0.75000000    0.00000000
MOF2_B_2-530    B    0.68500998    0.02135009    0.75000000    0.00000000
MOF2_B_2-531    B    0.81413008    0.02131998    0.75000000    0.00000000
MOF2_B_2-532    B    0.31497991    0.52502000    0.75000000    0.00000000
MOF2_B_2-533    B    0.18588003    0.52502990    0.75000000    0.00000000
MOF2_B_2-534    B    0.31499002    0.97864991    0.75000000    0.00000000
MOF2_B_2-535    B    0.18586992    0.97868002    0.75000000    0.00000000
MOF2_B_2-536    B    0.47498000    0.31497991    0.75000000    0.00000000
MOF2_B_2-537    B    0.47497010    0.18588003    0.75000000    0.00000000
MOF2_B_2-538    B    0.02135009    0.31499002    0.75000000    0.00000000
MOF2_B_2-539    B    0.02131998    0.18586992    0.75000000    0.00000000
MOF2_B_2-540    B    0.52502000    0.68502009    0.75000000    0.00000000
MOF2_B_2-541    B    0.52502990    0.81411997    0.75000000    0.00000000
MOF2_B_2-542    B    0.97864991    0.68500998    0.75000000    0.00000000
MOF2_B_2-543    B    0.97868002    0.81413008    0.75000000    0.00000000
F2_Ni4+2-544    Ni    0.99959003    0.99819000    0.25000000    0.00000000
F2_Ni4+2-545    Ni    0.99957992    0.49816999    0.25000000    0.00000000
F2_Ni4+2-546    Ni    0.00040997    0.00181000    0.25000000    0.00000000
F2_Ni4+2-547    Ni    0.00042008    0.50183001    0.25000000    0.00000000
F2_Ni4+2-548    Ni    0.99819000    0.00040997    0.25000000    0.00000000
F2_Ni4+2-549    Ni    0.49816999    0.00042008    0.25000000    0.00000000
F2_Ni4+2-550    Ni    0.00181000    0.99959003    0.25000000    0.00000000
F2_Ni4+2-551    Ni    0.50183001    0.99957992    0.25000000    0.00000000
F2_Ni4+2-552    Ni    0.50000000    0.50000000    0.25000000    0.00000000
F2_Ni4+2-553    Ni    0.99959003    0.99819000    0.75000000    0.00000000
F2_Ni4+2-554    Ni    0.99957992    0.49816999    0.75000000    0.00000000
F2_Ni4+2-555    Ni    0.00040997    0.00181000    0.75000000    0.00000000
F2_Ni4+2-556    Ni    0.00042008    0.50183001    0.75000000    0.00000000
F2_Ni4+2-557    Ni    0.99819000    0.00040997    0.75000000    0.00000000
F2_Ni4+2-558    Ni    0.49816999    0.00042008    0.75000000    0.00000000
F2_Ni4+2-559    Ni    0.00181000    0.99959003    0.75000000    0.00000000
F2_Ni4+2-560    Ni    0.50183001    0.99957992    0.75000000    0.00000000
F2_Ni4+2-561    Ni    0.50000000    0.50000000    0.75000000    0.00000000
opls_146-562    H    0.60718990    0.42953996    0.25000000    0.11500000
opls_146-563    H    0.62058006    0.53850007    0.25000000    0.11500000
opls_146-564    H    0.89196005    0.42953007    0.25000000    0.11500000
opls_146-565    H    0.87853999    0.53848996    0.25000000    0.11500000
opls_146-566    H    0.72282004    0.51869004    0.25000000    0.11500000
opls_146-567    H    0.77632992    0.51867993    0.25000000    0.11500000
opls_146-568    H    0.60718990    0.06682003    0.25000000    0.11500000
opls_146-569    H    0.62052995    0.95785002    0.25000000    0.11500000
opls_146-570    H    0.87860990    0.95783002    0.25000000    0.11500000
opls_146-571    H    0.89192994    0.06680992    0.25000000    0.11500000
opls_146-572    H    0.72282004    0.97762004    0.25000000    0.11500000
opls_146-573    H    0.77632002    0.97762004    0.25000000    0.11500000
opls_146-574    H    0.39281010    0.57046004    0.25000000    0.11500000
opls_146-575    H    0.37941994    0.46149993    0.25000000    0.11500000
opls_146-576    H    0.10803995    0.57046993    0.25000000    0.11500000
opls_146-577    H    0.12146001    0.46151004    0.25000000    0.11500000
opls_146-578    H    0.27717996    0.48130996    0.25000000    0.11500000
opls_146-579    H    0.22367008    0.48132007    0.25000000    0.11500000
opls_146-580    H    0.39281010    0.93317997    0.25000000    0.11500000
opls_146-581    H    0.37947005    0.04214998    0.25000000    0.11500000
opls_146-582    H    0.12139010    0.04216998    0.25000000    0.11500000
opls_146-583    H    0.10807006    0.93319008    0.25000000    0.11500000
opls_146-584    H    0.27717996    0.02237996    0.25000000    0.11500000
opls_146-585    H    0.22367998    0.02237996    0.25000000    0.11500000
opls_146-586    H    0.42953996    0.39281010    0.25000000    0.11500000
opls_146-587    H    0.53850007    0.37941994    0.25000000    0.11500000
opls_146-588    H    0.42953007    0.10803995    0.25000000    0.11500000
opls_146-589    H    0.53848996    0.12146001    0.25000000    0.11500000
opls_146-590    H    0.51869004    0.27717996    0.25000000    0.11500000
opls_146-591    H    0.51867993    0.22367008    0.25000000    0.11500000
opls_146-592    H    0.06682003    0.39281010    0.25000000    0.11500000
opls_146-593    H    0.95785002    0.37947005    0.25000000    0.11500000
opls_146-594    H    0.95783002    0.12139010    0.25000000    0.11500000
opls_146-595    H    0.06680992    0.10807006    0.25000000    0.11500000
opls_146-596    H    0.97762004    0.27717996    0.25000000    0.11500000
opls_146-597    H    0.97762004    0.22367998    0.25000000    0.11500000
opls_146-598    H    0.57046004    0.60718990    0.25000000    0.11500000
opls_146-599    H    0.46149993    0.62058006    0.25000000    0.11500000
opls_146-600    H    0.57046993    0.89196005    0.25000000    0.11500000
opls_146-601    H    0.46151004    0.87853999    0.25000000    0.11500000
opls_146-602    H    0.48130996    0.72282004    0.25000000    0.11500000
opls_146-603    H    0.48132007    0.77632992    0.25000000    0.11500000
opls_146-604    H    0.93317997    0.60718990    0.25000000    0.11500000
opls_146-605    H    0.04214998    0.62052995    0.25000000    0.11500000
opls_146-606    H    0.04216998    0.87860990    0.25000000    0.11500000
opls_146-607    H    0.93319008    0.89192994    0.25000000    0.11500000
opls_146-608    H    0.02237996    0.72282004    0.25000000    0.11500000
opls_146-609    H    0.02237996    0.77632002    0.25000000    0.11500000
opls_146-610    H    0.60718990    0.42953996    0.75000000    0.11500000
opls_146-611    H    0.62058006    0.53850007    0.75000000    0.11500000
opls_146-612    H    0.89196005    0.42953007    0.75000000    0.11500000
opls_146-613    H    0.87853999    0.53848996    0.75000000    0.11500000
opls_146-614    H    0.72282004    0.51869004    0.75000000    0.11500000
opls_146-615    H    0.77632992    0.51867993    0.75000000    0.11500000
opls_146-616    H    0.60718990    0.06682003    0.75000000    0.11500000
opls_146-617    H    0.62052995    0.95785002    0.75000000    0.11500000
opls_146-618    H    0.87860990    0.95783002    0.75000000    0.11500000
opls_146-619    H    0.89192994    0.06680992    0.75000000    0.11500000
opls_146-620    H    0.72282004    0.97762004    0.75000000    0.11500000
opls_146-621    H    0.77632002    0.97762004    0.75000000    0.11500000
opls_146-622    H    0.39281010    0.57046004    0.75000000    0.11500000
opls_146-623    H    0.37941994    0.46149993    0.75000000    0.11500000
opls_146-624    H    0.10803995    0.57046993    0.75000000    0.11500000
opls_146-625    H    0.12146001    0.46151004    0.75000000    0.11500000
opls_146-626    H    0.27717996    0.48130996    0.75000000    0.11500000
opls_146-627    H    0.22367008    0.48132007    0.75000000    0.11500000
opls_146-628    H    0.39281010    0.93317997    0.75000000    0.11500000
opls_146-629    H    0.37947005    0.04214998    0.75000000    0.11500000
opls_146-630    H    0.12139010    0.04216998    0.75000000    0.11500000
opls_146-631    H    0.10807006    0.93319008    0.75000000    0.11500000
opls_146-632    H    0.27717996    0.02237996    0.75000000    0.11500000
opls_146-633    H    0.22367998    0.02237996    0.75000000    0.11500000
opls_146-634    H    0.42953996    0.39281010    0.75000000    0.11500000
opls_146-635    H    0.53850007    0.37941994    0.75000000    0.11500000
opls_146-636    H    0.42953007    0.10803995    0.75000000    0.11500000
opls_146-637    H    0.53848996    0.12146001    0.75000000    0.11500000
opls_146-638    H    0.51869004    0.27717996    0.75000000    0.11500000
opls_146-639    H    0.51867993    0.22367008    0.75000000    0.11500000
opls_146-640    H    0.06682003    0.39281010    0.75000000    0.11500000
opls_146-641    H    0.95785002    0.37947005    0.75000000    0.11500000
opls_146-642    H    0.95783002    0.12139010    0.75000000    0.11500000
opls_146-643    H    0.06680992    0.10807006    0.75000000    0.11500000
opls_146-644    H    0.97762004    0.27717996    0.75000000    0.11500000
opls_146-645    H    0.97762004    0.22367998    0.75000000    0.11500000
opls_146-646    H    0.57046004    0.60718990    0.75000000    0.11500000
opls_146-647    H    0.46149993    0.62058006    0.75000000    0.11500000
opls_146-648    H    0.57046993    0.89196005    0.75000000    0.11500000
opls_146-649    H    0.46151004    0.87853999    0.75000000    0.11500000
opls_146-650    H    0.48130996    0.72282004    0.75000000    0.11500000
opls_146-651    H    0.48132007    0.77632992    0.75000000    0.11500000
opls_146-652    H    0.93317997    0.60718990    0.75000000    0.11500000
opls_146-653    H    0.04214998    0.62052995    0.75000000    0.11500000
opls_146-654    H    0.04216998    0.87860990    0.75000000    0.11500000
opls_146-655    H    0.93319008    0.89192994    0.75000000    0.11500000
opls_146-656    H    0.02237996    0.72282004    0.75000000    0.11500000
opls_146-657    H    0.02237996    0.77632002    0.75000000    0.11500000
opls_202-658    S    0.74955992    0.39436006    0.25000000    -0.33500000
opls_202-659    S    0.74955992    0.10195992    0.25000000    -0.33500000
opls_202-660    S    0.25044008    0.60563994    0.25000000    -0.33500000
opls_202-661    S    0.25044008    0.89804008    0.25000000    -0.33500000
opls_202-662    S    0.39436006    0.25044008    0.25000000    -0.33500000
opls_202-663    S    0.10195992    0.25044008    0.25000000    -0.33500000
opls_202-664    S    0.60563994    0.74955992    0.25000000    -0.33500000
opls_202-665    S    0.89804008    0.74955992    0.25000000    -0.33500000
opls_202-666    S    0.74955992    0.39436006    0.75000000    -0.33500000
opls_202-667    S    0.74955992    0.10195992    0.75000000    -0.33500000
opls_202-668    S    0.25044008    0.60563994    0.75000000    -0.33500000
opls_202-669    S    0.25044008    0.89804008    0.75000000    -0.33500000
opls_202-670    S    0.39436006    0.25044008    0.75000000    -0.33500000
opls_202-671    S    0.10195992    0.25044008    0.75000000    -0.33500000
opls_202-672    S    0.60563994    0.74955992    0.75000000    -0.33500000
opls_202-673    S    0.89804008    0.74955992    0.75000000    -0.33500000
