#======================================================================
# Crystal Data Generated By AuToFF
#----------------------------------------------------------------------

data_AuToFF_phase_1

_cell_length_a                         30.9700
_cell_length_b                         30.9700
_cell_length_c                         7.5700
_cell_angle_alpha                      90.00
_cell_angle_beta                       90.00
_cell_angle_gamma                      90.00
_symmetry_space_group_name_H-M_alt     'P 1'
_symmetry_space_group_IT_number        1

loop_
_space_group_symop_operation_xyz
   'x, y, z'

loop_
   _atom_site_label
   _atom_site_type_symbol
   _atom_site_fract_x
   _atom_site_fract_y
   _atom_site_fract_z
   _atom_site_charge
opls_700-0    C    0.68916984    0.97379012    0.45398018    0.02940000
opls_700-1    C    0.72060995    0.97691992    0.59050066    0.03890000
opls_145-2    C    0.75447013    0.94676009    0.59628005    -0.07290000
opls_145-3    C    0.75606006    0.91247013    0.47714003    -0.10730000
opls_263-4    C    0.72391992    0.90796997    0.34961955    0.17960000
opls_145-5    C    0.69112012    0.93876009    0.33643989    -0.14180000
opls_700-6    C    0.65631999    0.00547013    0.44147028    0.03340000
opls_145-7    C    0.65207007    0.03583016    0.57643989    -0.18130000
opls_166-8    C    0.68117985    0.03731999    0.71661955    0.34680000
opls_700-9    C    0.71724992    0.00978011    0.71954029    -0.05670000
opls_700-10    C    0.75121989    0.01642008    0.85685997    -0.05300000
opls_166-11    C    0.75892993    0.98444010    0.98443989    0.31550000
opls_145-12    C    0.78997998    0.99075008    0.11549934    -0.18090000
opls_700-13    C    0.81372005    0.02917985    0.12554954    0.03430000
opls_700-14    C    0.80621989    0.06187988    0.99952048    0.03190000
opls_700-15    C    0.77542008    0.05510010    0.86296037    0.03760000
opls_145-16    C    0.76968001    0.08704004    0.73347028    -0.09120000
opls_145-17    C    0.79280013    0.12553988    0.74019022    -0.10890000
opls_263-18    C    0.82221989    0.13269002    0.87612021    0.18320000
opls_145-19    C    0.82924992    0.10098999    0.00454029    -0.14180000
opls_142-20    C    0.62625993    0.01024992    0.29115059    0.01670000
opls_145-21    C    0.59886987    0.99230998    0.00457992    0.22540000
opls_142-22    C    0.84708008    0.03388989    0.26391017    0.01670000
opls_145-23    C    0.89440006    0.00143009    0.48008058    0.23630000
opls_145-24    C    0.57354989    0.02968001    0.98708983    -0.13100000
opls_145-25    C    0.54329997    0.03305005    0.85075958    -0.07500000
opls_700-26    C    0.53753988    0.99920988    0.72861955    0.04700000
opls_145-27    C    0.56384985    0.96235002    0.74600000    -0.07500000
opls_145-28    C    0.59445011    0.95915015    0.88098018    -0.10850000
opls_145-29    C    0.90306006    0.03867000    0.58008058    -0.13130000
opls_145-30    C    0.93592993    0.03824992    0.70777939    -0.07730000
opls_700-31    C    0.96059994    0.00070003    0.73764993    0.05650000
opls_145-32    C    0.95163997    0.96401001    0.63440026    -0.07290000
opls_145-33    C    0.91864998    0.96419987    0.50936063    -0.10800000
opls_700-34    C    0.18916984    0.47379012    0.95398018    0.02940000
opls_700-35    C    0.22060995    0.47691992    0.09050066    0.03900000
opls_145-36    C    0.25447013    0.44676009    0.09628005    -0.07290000
opls_145-37    C    0.25606006    0.41247013    0.97714003    -0.10730000
opls_263-38    C    0.22391992    0.40796997    0.84961955    0.17960000
opls_145-39    C    0.19112012    0.43876009    0.83643989    -0.14180000
opls_700-40    C    0.15631999    0.50547013    0.94147028    0.03340000
opls_145-41    C    0.15207007    0.53583016    0.07643989    -0.18130000
opls_166-42    C    0.18117985    0.53731999    0.21661955    0.34670000
opls_700-43    C    0.21724992    0.50978011    0.21954029    -0.05670000
opls_700-44    C    0.25121989    0.51642008    0.35685997    -0.05300000
opls_166-45    C    0.25892993    0.48444010    0.48443989    0.31550000
opls_145-46    C    0.28997998    0.49075008    0.61549934    -0.18080000
opls_700-47    C    0.31372005    0.52917985    0.62554954    0.03430000
opls_700-48    C    0.30621989    0.56187988    0.49952048    0.03190000
opls_700-49    C    0.27542008    0.55510010    0.36296037    0.03760000
opls_145-50    C    0.26968001    0.58704004    0.23347028    -0.09120000
opls_145-51    C    0.29280013    0.62553988    0.24019022    -0.10890000
opls_263-52    C    0.32221989    0.63269002    0.37612021    0.18320000
opls_145-53    C    0.32924992    0.60098999    0.50454029    -0.14180000
opls_142-54    C    0.12625993    0.51024992    0.79115059    0.01670000
opls_145-55    C    0.09886987    0.49230998    0.50457992    0.22550000
opls_142-56    C    0.34708008    0.53388989    0.76391017    0.01670000
opls_145-57    C    0.39440006    0.50143009    0.98008058    0.23630000
opls_145-58    C    0.07354989    0.52968001    0.48708983    -0.13100000
opls_145-59    C    0.04329997    0.53305005    0.35075958    -0.07500000
opls_700-60    C    0.03753988    0.49920988    0.22861955    0.04700000
opls_145-61    C    0.06384985    0.46235002    0.24600000    -0.07490000
opls_145-62    C    0.09445011    0.45915015    0.38098018    -0.10860000
opls_145-63    C    0.40306006    0.53867000    0.08008058    -0.13130000
opls_145-64    C    0.43592993    0.53824992    0.20777939    -0.07730000
opls_700-65    C    0.46059994    0.50070003    0.23764993    0.05650000
opls_145-66    C    0.45163997    0.46401001    0.13440026    -0.07290000
opls_145-67    C    0.41864998    0.46419987    0.00936063    -0.10800000
opls_700-68    C    0.81083016    0.52620988    0.95398018    0.02940000
opls_700-69    C    0.77939005    0.52308008    0.09050066    0.03890000
opls_145-70    C    0.74552987    0.55323991    0.09628005    -0.07290000
opls_145-71    C    0.74393994    0.58752987    0.97714003    -0.10720000
opls_263-72    C    0.77608008    0.59203003    0.84961955    0.17960000
opls_145-73    C    0.80887988    0.56123991    0.83643989    -0.14180000
opls_700-74    C    0.84368001    0.49452987    0.94147028    0.03340000
opls_145-75    C    0.84792993    0.46416984    0.07643989    -0.18130000
opls_166-76    C    0.81882015    0.46268001    0.21661955    0.34660000
opls_700-77    C    0.78275008    0.49021989    0.21954029    -0.05660000
opls_700-78    C    0.74878011    0.48357992    0.35685997    -0.05300000
opls_166-79    C    0.74107007    0.51555990    0.48443989    0.31550000
opls_145-80    C    0.71002002    0.50924992    0.61549934    -0.18090000
opls_700-81    C    0.68627995    0.47082015    0.62554954    0.03430000
opls_700-82    C    0.69378011    0.43812012    0.49952048    0.03190000
opls_700-83    C    0.72457992    0.44489990    0.36296037    0.03760000
opls_145-84    C    0.73031999    0.41295996    0.23347028    -0.09120000
opls_145-85    C    0.70719987    0.37446012    0.24019022    -0.10890000
opls_263-86    C    0.67778011    0.36730998    0.37612021    0.18320000
opls_145-87    C    0.67075008    0.39901001    0.50454029    -0.14180000
opls_142-88    C    0.87374007    0.48975008    0.79115059    0.01670000
opls_145-89    C    0.90113013    0.50769002    0.50457992    0.22540000
opls_142-90    C    0.65291992    0.46611011    0.76391017    0.01670000
opls_145-91    C    0.60559994    0.49856991    0.98008058    0.23630000
opls_145-92    C    0.92645011    0.47031999    0.48708983    -0.13100000
opls_145-93    C    0.95670003    0.46694995    0.35075958    -0.07500000
opls_700-94    C    0.96246012    0.50079012    0.22861955    0.04700000
opls_145-95    C    0.93615015    0.53764998    0.24600000    -0.07500000
opls_145-96    C    0.90554989    0.54084985    0.38098018    -0.10860000
opls_145-97    C    0.59693994    0.46133000    0.08008058    -0.13130000
opls_145-98    C    0.56407007    0.46175008    0.20777939    -0.07730000
opls_700-99    C    0.53940006    0.49929997    0.23764993    0.05650000
opls_145-100    C    0.54836003    0.53598999    0.13440026    -0.07290000
opls_145-101    C    0.58135002    0.53580013    0.00936063    -0.10790000
opls_700-102    C    0.31083016    0.02620988    0.45398018    0.02940000
opls_700-103    C    0.27939005    0.02308008    0.59050066    0.03900000
opls_145-104    C    0.24552987    0.05323991    0.59628005    -0.07290000
opls_145-105    C    0.24393994    0.08752987    0.47714003    -0.10730000
opls_263-106    C    0.27608008    0.09203003    0.34961955    0.17960000
opls_145-107    C    0.30887988    0.06123991    0.33643989    -0.14180000
opls_700-108    C    0.34368001    0.99452987    0.44147028    0.03340000
opls_145-109    C    0.34792993    0.96416984    0.57643989    -0.18130000
opls_166-110    C    0.31882015    0.96268001    0.71661955    0.34660000
opls_700-111    C    0.28275008    0.99021989    0.71954029    -0.05670000
opls_700-112    C    0.24878011    0.98357992    0.85685997    -0.05300000
opls_166-113    C    0.24107007    0.01555990    0.98443989    0.31550000
opls_145-114    C    0.21002002    0.00924992    0.11549934    -0.18090000
opls_700-115    C    0.18627995    0.97082015    0.12554954    0.03430000
opls_700-116    C    0.19378011    0.93812012    0.99952048    0.03190000
opls_700-117    C    0.22457992    0.94489990    0.86296037    0.03760000
opls_145-118    C    0.23031999    0.91295996    0.73347028    -0.09120000
opls_145-119    C    0.20719987    0.87446012    0.74019022    -0.10890000
opls_263-120    C    0.17778011    0.86730998    0.87612021    0.18320000
opls_145-121    C    0.17075008    0.89901001    0.00454029    -0.14180000
opls_142-122    C    0.37374007    0.98975008    0.29115059    0.01670000
opls_145-123    C    0.40113013    0.00769002    0.00457992    0.22540000
opls_142-124    C    0.15291992    0.96611011    0.26391017    0.01670000
opls_145-125    C    0.10559994    0.99856991    0.48008058    0.23630000
opls_145-126    C    0.42645011    0.97031999    0.98708983    -0.13090000
opls_145-127    C    0.45670003    0.96694995    0.85075958    -0.07500000
opls_700-128    C    0.46246012    0.00079012    0.72861955    0.04700000
opls_145-129    C    0.43615015    0.03764998    0.74600000    -0.07500000
opls_145-130    C    0.40554989    0.04084985    0.88098018    -0.10860000
opls_145-131    C    0.09693994    0.96133000    0.58008058    -0.13130000
opls_145-132    C    0.06407007    0.96175008    0.70777939    -0.07730000
opls_700-133    C    0.03940006    0.99929997    0.73764993    0.05650000
opls_145-134    C    0.04836003    0.03598999    0.63440026    -0.07290000
opls_145-135    C    0.08135002    0.03580013    0.50936063    -0.10800000
opls_700-136    C    0.02620988    0.18916984    0.70398018    0.02940000
opls_700-137    C    0.02308008    0.22060995    0.84050066    0.03890000
opls_145-138    C    0.05323991    0.25447013    0.84628005    -0.07290000
opls_145-139    C    0.08752987    0.25606006    0.72714003    -0.10730000
opls_263-140    C    0.09203003    0.22391992    0.59961955    0.17960000
opls_145-141    C    0.06123991    0.19112012    0.58643989    -0.14180000
opls_700-142    C    0.99452987    0.15631999    0.69147028    0.03340000
opls_145-143    C    0.96416984    0.15207007    0.82643989    -0.18130000
opls_166-144    C    0.96268001    0.18117985    0.96661955    0.34660000
opls_700-145    C    0.99021989    0.21724992    0.96954029    -0.05670000
opls_700-146    C    0.98357992    0.25121989    0.10685997    -0.05300000
opls_166-147    C    0.01555990    0.25892993    0.23443989    0.31550000
opls_145-148    C    0.00924992    0.28997998    0.36549934    -0.18090000
opls_700-149    C    0.97082015    0.31372005    0.37554954    0.03430000
opls_700-150    C    0.93812012    0.30621989    0.24952048    0.03190000
opls_700-151    C    0.94489990    0.27542008    0.11296037    0.03760000
opls_145-152    C    0.91295996    0.26968001    0.98347028    -0.09120000
opls_145-153    C    0.87446012    0.29280013    0.99019022    -0.10880000
opls_263-154    C    0.86730998    0.32221989    0.12612021    0.18320000
opls_145-155    C    0.89901001    0.32924992    0.25454029    -0.14180000
opls_142-156    C    0.98975008    0.12625993    0.54115059    0.01670000
opls_145-157    C    0.00769002    0.09886987    0.25457992    0.22540000
opls_142-158    C    0.96611011    0.34708008    0.51391017    0.01670000
opls_145-159    C    0.99856991    0.39440006    0.73008058    0.23630000
opls_145-160    C    0.97031999    0.07354989    0.23708983    -0.13100000
opls_145-161    C    0.96694995    0.04329997    0.10075958    -0.07500000
opls_700-162    C    0.00079012    0.03753988    0.97861955    0.04700000
opls_145-163    C    0.03764998    0.06384985    0.99600000    -0.07500000
opls_145-164    C    0.04084985    0.09445011    0.13098018    -0.10860000
opls_145-165    C    0.96133000    0.40306006    0.83008058    -0.13130000
opls_145-166    C    0.96175008    0.43592993    0.95777939    -0.07730000
opls_700-167    C    0.99929997    0.46059994    0.98764993    0.05650000
opls_145-168    C    0.03598999    0.45163997    0.88440026    -0.07290000
opls_145-169    C    0.03580013    0.41864998    0.75936063    -0.10800000
opls_700-170    C    0.52620988    0.68916984    0.20398018    0.02940000
opls_700-171    C    0.52308008    0.72060995    0.34050066    0.03890000
opls_145-172    C    0.55323991    0.75447013    0.34628005    -0.07290000
opls_145-173    C    0.58752987    0.75606006    0.22714003    -0.10730000
opls_263-174    C    0.59203003    0.72391992    0.09961955    0.17960000
opls_145-175    C    0.56123991    0.69112012    0.08643989    -0.14170000
opls_700-176    C    0.49452987    0.65631999    0.19147028    0.03340000
opls_145-177    C    0.46416984    0.65207007    0.32643989    -0.18120000
opls_166-178    C    0.46268001    0.68117985    0.46661955    0.34660000
opls_700-179    C    0.49021989    0.71724992    0.46954029    -0.05670000
opls_700-180    C    0.48357992    0.75121989    0.60685997    -0.05300000
opls_166-181    C    0.51555990    0.75892993    0.73443989    0.31550000
opls_145-182    C    0.50924992    0.78997998    0.86549934    -0.18090000
opls_700-183    C    0.47082015    0.81372005    0.87554954    0.03430000
opls_700-184    C    0.43812012    0.80621989    0.74952048    0.03190000
opls_700-185    C    0.44489990    0.77542008    0.61296037    0.03770000
opls_145-186    C    0.41295996    0.76968001    0.48347028    -0.09120000
opls_145-187    C    0.37446012    0.79280013    0.49019022    -0.10890000
opls_263-188    C    0.36730998    0.82221989    0.62612021    0.18320000
opls_145-189    C    0.39901001    0.82924992    0.75454029    -0.14180000
opls_142-190    C    0.48975008    0.62625993    0.04115059    0.01670000
opls_145-191    C    0.50769002    0.59886987    0.75457992    0.22540000
opls_142-192    C    0.46611011    0.84708008    0.01391017    0.01670000
opls_145-193    C    0.49856991    0.89440006    0.23008058    0.23630000
opls_145-194    C    0.47031999    0.57354989    0.73708983    -0.13100000
opls_145-195    C    0.46694995    0.54329997    0.60075958    -0.07500000
opls_700-196    C    0.50079012    0.53753988    0.47861955    0.04700000
opls_145-197    C    0.53764998    0.56384985    0.49600000    -0.07500000
opls_145-198    C    0.54084985    0.59445011    0.63098018    -0.10860000
opls_145-199    C    0.46133000    0.90306006    0.33008058    -0.13130000
opls_145-200    C    0.46175008    0.93592993    0.45777939    -0.07730000
opls_700-201    C    0.49929997    0.96059994    0.48764993    0.05660000
opls_145-202    C    0.53598999    0.95163997    0.38440026    -0.07290000
opls_145-203    C    0.53580013    0.91864998    0.25936063    -0.10800000
opls_700-204    C    0.47379012    0.31083016    0.20398018    0.02940000
opls_700-205    C    0.47691992    0.27939005    0.34050066    0.03890000
opls_145-206    C    0.44676009    0.24552987    0.34628005    -0.07290000
opls_145-207    C    0.41247013    0.24393994    0.22714003    -0.10720000
opls_263-208    C    0.40796997    0.27608008    0.09961955    0.17960000
opls_145-209    C    0.43876009    0.30887988    0.08643989    -0.14180000
opls_700-210    C    0.50547013    0.34368001    0.19147028    0.03340000
opls_145-211    C    0.53583016    0.34792993    0.32643989    -0.18130000
opls_166-212    C    0.53731999    0.31882015    0.46661955    0.34690000
opls_700-213    C    0.50978011    0.28275008    0.46954029    -0.05670000
opls_700-214    C    0.51642008    0.24878011    0.60685997    -0.05300000
opls_166-215    C    0.48444010    0.24107007    0.73443989    0.31550000
opls_145-216    C    0.49075008    0.21002002    0.86549934    -0.18090000
opls_700-217    C    0.52917985    0.18627995    0.87554954    0.03430000
opls_700-218    C    0.56187988    0.19378011    0.74952048    0.03190000
opls_700-219    C    0.55510010    0.22457992    0.61296037    0.03760000
opls_145-220    C    0.58704004    0.23031999    0.48347028    -0.09120000
opls_145-221    C    0.62553988    0.20719987    0.49019022    -0.10880000
opls_263-222    C    0.63269002    0.17778011    0.62612021    0.18320000
opls_145-223    C    0.60098999    0.17075008    0.75454029    -0.14170000
opls_142-224    C    0.51024992    0.37374007    0.04115059    0.01670000
opls_145-225    C    0.49230998    0.40113013    0.75457992    0.22540000
opls_142-226    C    0.53388989    0.15291992    0.01391017    0.01670000
opls_145-227    C    0.50143009    0.10559994    0.23008058    0.23630000
opls_145-228    C    0.52968001    0.42645011    0.73708983    -0.13100000
opls_145-229    C    0.53305005    0.45670003    0.60075958    -0.07500000
opls_700-230    C    0.49920988    0.46246012    0.47861955    0.04700000
opls_145-231    C    0.46235002    0.43615015    0.49600000    -0.07500000
opls_145-232    C    0.45915015    0.40554989    0.63098018    -0.10860000
opls_145-233    C    0.53867000    0.09693994    0.33008058    -0.13130000
opls_145-234    C    0.53824992    0.06407007    0.45777939    -0.07730000
opls_700-235    C    0.50070003    0.03940006    0.48764993    0.05650000
opls_145-236    C    0.46401001    0.04836003    0.38440026    -0.07290000
opls_145-237    C    0.46419987    0.08135002    0.25936063    -0.10800000
opls_700-238    C    0.97379012    0.81083016    0.70398018    0.02940000
opls_700-239    C    0.97691992    0.77939005    0.84050066    0.03890000
opls_145-240    C    0.94676009    0.74552987    0.84628005    -0.07290000
opls_145-241    C    0.91247013    0.74393994    0.72714003    -0.10730000
opls_263-242    C    0.90796997    0.77608008    0.59961955    0.17960000
opls_145-243    C    0.93876009    0.80887988    0.58643989    -0.14180000
opls_700-244    C    0.00547013    0.84368001    0.69147028    0.03340000
opls_145-245    C    0.03583016    0.84792993    0.82643989    -0.18130000
opls_166-246    C    0.03731999    0.81882015    0.96661955    0.34660000
opls_700-247    C    0.00978011    0.78275008    0.96954029    -0.05670000
opls_700-248    C    0.01642008    0.74878011    0.10685997    -0.05300000
opls_166-249    C    0.98444010    0.74107007    0.23443989    0.31550000
opls_145-250    C    0.99075008    0.71002002    0.36549934    -0.18090000
opls_700-251    C    0.02917985    0.68627995    0.37554954    0.03440000
opls_700-252    C    0.06187988    0.69378011    0.24952048    0.03190000
opls_700-253    C    0.05510010    0.72457992    0.11296037    0.03760000
opls_145-254    C    0.08704004    0.73031999    0.98347028    -0.09120000
opls_145-255    C    0.12553988    0.70719987    0.99019022    -0.10890000
opls_263-256    C    0.13269002    0.67778011    0.12612021    0.18330000
opls_145-257    C    0.10098999    0.67075008    0.25454029    -0.14180000
opls_142-258    C    0.01024992    0.87374007    0.54115059    0.01670000
opls_145-259    C    0.99230998    0.90113013    0.25457992    0.22540000
opls_142-260    C    0.03388989    0.65291992    0.51391017    0.01670000
opls_145-261    C    0.00143009    0.60559994    0.73008058    0.23630000
opls_145-262    C    0.02968001    0.92645011    0.23708983    -0.13100000
opls_145-263    C    0.03305005    0.95670003    0.10075958    -0.07490000
opls_700-264    C    0.99920988    0.96246012    0.97861955    0.04700000
opls_145-265    C    0.96235002    0.93615015    0.99600000    -0.07500000
opls_145-266    C    0.95915015    0.90554989    0.13098018    -0.10850000
opls_145-267    C    0.03867000    0.59693994    0.83008058    -0.13130000
opls_145-268    C    0.03824992    0.56407007    0.95777939    -0.07730000
opls_700-269    C    0.00070003    0.53940006    0.98764993    0.05650000
opls_145-270    C    0.96401001    0.54836003    0.88440026    -0.07290000
opls_145-271    C    0.96419987    0.58135002    0.75936063    -0.10800000
opls_701-272    C    0.00000000    0.00000000    0.85082034    -0.00660000
opls_701-273    C    0.50000000    0.50000000    0.35082034    -0.00660000
opls_701-274    C    0.00000000    0.50000000    0.10082034    -0.00660000
opls_701-275    C    0.50000000    0.00000000    0.60082034    -0.00660000
opls_750-276    N    0.62800000    0.98664998    0.14985997    -0.27700000
opls_750-277    N    0.86183985    0.00022990    0.34594055    -0.27670000
opls_750-278    N    0.12800000    0.48664998    0.64985997    -0.27690000
opls_750-279    N    0.36183985    0.50022990    0.84594055    -0.27690000
opls_750-280    N    0.87200000    0.51335002    0.64985997    -0.27700000
opls_750-281    N    0.63816015    0.49977010    0.84594055    -0.27690000
opls_750-282    N    0.37200000    0.01335002    0.14985997    -0.27700000
opls_750-283    N    0.13816015    0.99977010    0.34594055    -0.27690000
opls_750-284    N    0.01335002    0.12800000    0.39985997    -0.27690000
opls_750-285    N    0.99977010    0.36183985    0.59594055    -0.27690000
opls_750-286    N    0.51335002    0.62800000    0.89985997    -0.27690000
opls_750-287    N    0.49977010    0.86183985    0.09594055    -0.27670000
opls_750-288    N    0.48664998    0.37200000    0.89985997    -0.27700000
opls_750-289    N    0.50022990    0.13816015    0.09594055    -0.27690000
opls_750-290    N    0.98664998    0.87200000    0.39985997    -0.27700000
opls_750-291    N    0.00022990    0.63816015    0.59594055    -0.27680000
opls_264-292    Cl    0.72463997    0.86347013    0.20692999    -0.06700000
opls_264-293    Cl    0.84960995    0.18189990    0.88519022    -0.06490000
opls_264-294    Cl    0.22463997    0.36347013    0.70692999    -0.06700000
opls_264-295    Cl    0.34960995    0.68189990    0.38519022    -0.06480000
opls_264-296    Cl    0.77536003    0.63652987    0.70692999    -0.06700000
opls_264-297    Cl    0.65039005    0.31810010    0.38519022    -0.06490000
opls_264-298    Cl    0.27536003    0.13652987    0.20692999    -0.06700000
opls_264-299    Cl    0.15039005    0.81810010    0.88519022    -0.06490000
opls_264-300    Cl    0.13652987    0.22463997    0.45692999    -0.06700000
opls_264-301    Cl    0.81810010    0.34960995    0.13519022    -0.06490000
opls_264-302    Cl    0.63652987    0.72463997    0.95692999    -0.06700000
opls_264-303    Cl    0.31810010    0.84960995    0.63519022    -0.06490000
opls_264-304    Cl    0.36347013    0.27536003    0.95692999    -0.06700000
opls_264-305    Cl    0.68189990    0.15039005    0.63519022    -0.06490000
opls_264-306    Cl    0.86347013    0.77536003    0.45692999    -0.06700000
opls_264-307    Cl    0.18189990    0.65039005    0.13519022    -0.06490000
opls_167-308    O    0.67436003    0.06627995    0.85038970    -0.36230000
opls_167-309    O    0.73604004    0.94673006    0.98189960    -0.38410000
opls_167-310    O    0.17436003    0.56627995    0.35038970    -0.36230000
opls_167-311    O    0.23604004    0.44673006    0.48189960    -0.38420000
opls_167-312    O    0.82563997    0.43372005    0.35038970    -0.36240000
opls_167-313    O    0.76395996    0.55326994    0.48189960    -0.38410000
opls_167-314    O    0.32563997    0.93372005    0.85038970    -0.36240000
opls_167-315    O    0.26395996    0.05326994    0.98189960    -0.38410000
opls_167-316    O    0.93372005    0.17436003    0.10038970    -0.36240000
opls_167-317    O    0.05326994    0.23604004    0.23189960    -0.38420000
opls_167-318    O    0.43372005    0.67436003    0.60038970    -0.36240000
opls_167-319    O    0.55326994    0.73604004    0.73189960    -0.38420000
opls_167-320    O    0.56627995    0.32563997    0.60038970    -0.36240000
opls_167-321    O    0.44673006    0.26395996    0.73189960    -0.38420000
opls_167-322    O    0.06627995    0.82563997    0.10038970    -0.36240000
opls_167-323    O    0.94673006    0.76395996    0.23189960    -0.38420000
opls_146-324    H    0.78111011    0.95016984    0.69931968    0.05000000
opls_146-325    H    0.78362996    0.88814014    0.48410040    0.05070000
opls_146-326    H    0.66546012    0.93563997    0.22917966    0.05000000
opls_146-327    H    0.62437004    0.06006006    0.57340026    0.05060000
opls_146-328    H    0.79644010    0.96435002    0.21712021    0.05000000
opls_146-329    H    0.74570003    0.08112012    0.62175958    0.05010000
opls_146-330    H    0.78762996    0.15122990    0.63435007    0.05000000
opls_146-331    H    0.85379012    0.10676009    0.11431044    0.05060000
opls_144-332    H    0.60051986    0.03638005    0.30407001    0.03000000
opls_144-333    H    0.85983985    0.06738005    0.29833025    0.02990000
opls_146-334    H    0.57778011    0.05736003    0.08489036    0.05000000
opls_146-335    H    0.52286987    0.06349015    0.83726948    0.05060000
opls_146-336    H    0.56038005    0.93442008    0.64885997    0.05000000
opls_146-337    H    0.61595996    0.92936003    0.89052048    0.05000000
opls_146-338    H    0.88334001    0.06925993    0.55736988    0.05000000
opls_146-339    H    0.94292993    0.06850985    0.78870013    0.05000000
opls_146-340    H    0.97153988    0.93336003    0.65228005    0.05060000
opls_146-341    H    0.91131999    0.93376009    0.43010964    0.05000000
opls_168-342    H    0.70590991    0.07780013    0.90164993    0.32910000
opls_168-343    H    0.70402002    0.95193994    0.04431968    0.32920000
opls_146-344    H    0.28111011    0.45016984    0.19931968    0.05000000
opls_146-345    H    0.28362996    0.38814014    0.98410040    0.05060000
opls_146-346    H    0.16546012    0.43563997    0.72917966    0.05000000
opls_146-347    H    0.12437004    0.56006006    0.07340026    0.05060000
opls_146-348    H    0.29644010    0.46435002    0.71712021    0.05000000
opls_146-349    H    0.24570003    0.58112012    0.12175958    0.05000000
opls_146-350    H    0.28762996    0.65122990    0.13435007    0.05000000
opls_146-351    H    0.35379012    0.60676009    0.61431044    0.05060000
opls_144-352    H    0.10051986    0.53638005    0.80407001    0.02990000
opls_144-353    H    0.35983985    0.56738005    0.79833025    0.02990000
opls_146-354    H    0.07778011    0.55736003    0.58489036    0.05000000
opls_146-355    H    0.02286987    0.56349015    0.33726948    0.05060000
opls_146-356    H    0.06038005    0.43442008    0.14885997    0.05000000
opls_146-357    H    0.11595996    0.42936003    0.39052048    0.05000000
opls_146-358    H    0.38334001    0.56925993    0.05736988    0.05000000
opls_146-359    H    0.44292993    0.56850985    0.28870013    0.05000000
opls_146-360    H    0.47153988    0.43336003    0.15228005    0.05060000
opls_146-361    H    0.41131999    0.43376009    0.93010964    0.05000000
opls_168-362    H    0.20590991    0.57780013    0.40164993    0.32900000
opls_168-363    H    0.20402002    0.45193994    0.54431968    0.32910000
opls_146-364    H    0.71888989    0.54983016    0.19931968    0.05000000
opls_146-365    H    0.71637004    0.61185986    0.98410040    0.05060000
opls_146-366    H    0.83453988    0.56436003    0.72917966    0.05000000
opls_146-367    H    0.87562996    0.43993994    0.07340026    0.05070000
opls_146-368    H    0.70355990    0.53564998    0.71712021    0.05000000
opls_146-369    H    0.75429997    0.41887988    0.12175958    0.05000000
opls_146-370    H    0.71237004    0.34877010    0.13435007    0.05000000
opls_146-371    H    0.64620988    0.39323991    0.61431044    0.05060000
opls_144-372    H    0.89948014    0.46361995    0.80407001    0.02990000
opls_144-373    H    0.64016015    0.43261995    0.79833025    0.02990000
opls_146-374    H    0.92221989    0.44263997    0.58489036    0.05000000
opls_146-375    H    0.97713013    0.43650985    0.33726948    0.05060000
opls_146-376    H    0.93961995    0.56557992    0.14885997    0.05000000
opls_146-377    H    0.88404004    0.57063997    0.39052048    0.05000000
opls_146-378    H    0.61665999    0.43074007    0.05736988    0.05000000
opls_146-379    H    0.55707007    0.43149015    0.28870013    0.05000000
opls_146-380    H    0.52846012    0.56663997    0.15228005    0.05060000
opls_146-381    H    0.58868001    0.56623991    0.93010964    0.05000000
opls_168-382    H    0.79409009    0.42219987    0.40164993    0.32900000
opls_168-383    H    0.79597998    0.54806006    0.54431968    0.32910000
opls_146-384    H    0.21888989    0.04983016    0.69931968    0.05000000
opls_146-385    H    0.21637004    0.11185986    0.48410040    0.05060000
opls_146-386    H    0.33453988    0.06436003    0.22917966    0.05000000
opls_146-387    H    0.37562996    0.93993994    0.57340026    0.05060000
opls_146-388    H    0.20355990    0.03564998    0.21712021    0.05000000
opls_146-389    H    0.25429997    0.91887988    0.62175958    0.05000000
opls_146-390    H    0.21237004    0.84877010    0.63435007    0.05000000
opls_146-391    H    0.14620988    0.89323991    0.11431044    0.05060000
opls_144-392    H    0.39948014    0.96361995    0.30407001    0.02990000
opls_144-393    H    0.14016015    0.93261995    0.29833025    0.02990000
opls_146-394    H    0.42221989    0.94263997    0.08489036    0.05000000
opls_146-395    H    0.47713013    0.93650985    0.83726948    0.05060000
opls_146-396    H    0.43961995    0.06557992    0.64885997    0.05000000
opls_146-397    H    0.38404004    0.07063997    0.89052048    0.05010000
opls_146-398    H    0.11665999    0.93074007    0.55736988    0.05000000
opls_146-399    H    0.05707007    0.93149015    0.78870013    0.05000000
opls_146-400    H    0.02846012    0.06663997    0.65228005    0.05060000
opls_146-401    H    0.08868001    0.06623991    0.43010964    0.05000000
opls_168-402    H    0.29409009    0.92219987    0.90164993    0.32900000
opls_168-403    H    0.29597998    0.04806006    0.04431968    0.32910000
opls_146-404    H    0.04983016    0.28111011    0.94931968    0.05000000
opls_146-405    H    0.11185986    0.28362996    0.73410040    0.05060000
opls_146-406    H    0.06436003    0.16546012    0.47917966    0.05000000
opls_146-407    H    0.93993994    0.12437004    0.82340026    0.05060000
opls_146-408    H    0.03564998    0.29644010    0.46712021    0.05000000
opls_146-409    H    0.91887988    0.24570003    0.87175958    0.05010000
opls_146-410    H    0.84877010    0.28762996    0.88435007    0.05000000
opls_146-411    H    0.89323991    0.35379012    0.36431044    0.05060000
opls_144-412    H    0.96361995    0.10051986    0.55407001    0.02990000
opls_144-413    H    0.93261995    0.35983985    0.54833025    0.02990000
opls_146-414    H    0.94263997    0.07778011    0.33489036    0.05000000
opls_146-415    H    0.93650985    0.02286987    0.08726948    0.05060000
opls_146-416    H    0.06557992    0.06038005    0.89885997    0.05000000
opls_146-417    H    0.07063997    0.11595996    0.14052048    0.05000000
opls_146-418    H    0.93074007    0.38334001    0.80736988    0.05000000
opls_146-419    H    0.93149015    0.44292993    0.03870013    0.05000000
opls_146-420    H    0.06663997    0.47153988    0.90228005    0.05060000
opls_146-421    H    0.06623991    0.41131999    0.68010964    0.05000000
opls_168-422    H    0.92219987    0.20590991    0.15164993    0.32900000
opls_168-423    H    0.04806006    0.20402002    0.29431968    0.32910000
opls_146-424    H    0.54983016    0.78111011    0.44931968    0.05000000
opls_146-425    H    0.61185986    0.78362996    0.23410040    0.05060000
opls_146-426    H    0.56436003    0.66546012    0.97917966    0.05000000
opls_146-427    H    0.43993994    0.62437004    0.32340026    0.05060000
opls_146-428    H    0.53564998    0.79644010    0.96712021    0.05000000
opls_146-429    H    0.41887988    0.74570003    0.37175958    0.05000000
opls_146-430    H    0.34877010    0.78762996    0.38435007    0.05000000
opls_146-431    H    0.39323991    0.85379012    0.86431044    0.05060000
opls_144-432    H    0.46361995    0.60051986    0.05407001    0.02990000
opls_144-433    H    0.43261995    0.85983985    0.04833025    0.02990000
opls_146-434    H    0.44263997    0.57778011    0.83489036    0.05000000
opls_146-435    H    0.43650985    0.52286987    0.58726948    0.05060000
opls_146-436    H    0.56557992    0.56038005    0.39885997    0.05010000
opls_146-437    H    0.57063997    0.61595996    0.64052048    0.05000000
opls_146-438    H    0.43074007    0.88334001    0.30736988    0.05000000
opls_146-439    H    0.43149015    0.94292993    0.53870013    0.05000000
opls_146-440    H    0.56663997    0.97153988    0.40228005    0.05060000
opls_146-441    H    0.56623991    0.91131999    0.18010964    0.05000000
opls_168-442    H    0.42219987    0.70590991    0.65164993    0.32900000
opls_168-443    H    0.54806006    0.70402002    0.79431968    0.32910000
opls_146-444    H    0.45016984    0.21888989    0.44931968    0.05010000
opls_146-445    H    0.38814014    0.21637004    0.23410040    0.05070000
opls_146-446    H    0.43563997    0.33453988    0.97917966    0.05000000
opls_146-447    H    0.56006006    0.37562996    0.32340026    0.05060000
opls_146-448    H    0.46435002    0.20355990    0.96712021    0.05000000
opls_146-449    H    0.58112012    0.25429997    0.37175958    0.05000000
opls_146-450    H    0.65122990    0.21237004    0.38435007    0.05000000
opls_146-451    H    0.60676009    0.14620988    0.86431044    0.05060000
opls_144-452    H    0.53638005    0.39948014    0.05407001    0.02990000
opls_144-453    H    0.56738005    0.14016015    0.04833025    0.02990000
opls_146-454    H    0.55736003    0.42221989    0.83489036    0.05000000
opls_146-455    H    0.56349015    0.47713013    0.58726948    0.05060000
opls_146-456    H    0.43442008    0.43961995    0.39885997    0.05000000
opls_146-457    H    0.42936003    0.38404004    0.64052048    0.05000000
opls_146-458    H    0.56925993    0.11665999    0.30736988    0.05000000
opls_146-459    H    0.56850985    0.05707007    0.53870013    0.05000000
opls_146-460    H    0.43336003    0.02846012    0.40228005    0.05060000
opls_146-461    H    0.43376009    0.08868001    0.18010964    0.05000000
opls_168-462    H    0.57780013    0.29409009    0.65164993    0.32910000
opls_168-463    H    0.45193994    0.29597998    0.79431968    0.32910000
opls_146-464    H    0.95016984    0.71888989    0.94931968    0.05000000
opls_146-465    H    0.88814014    0.71637004    0.73410040    0.05060000
opls_146-466    H    0.93563997    0.83453988    0.47917966    0.05000000
opls_146-467    H    0.06006006    0.87562996    0.82340026    0.05060000
opls_146-468    H    0.96435002    0.70355990    0.46712021    0.05000000
opls_146-469    H    0.08112012    0.75429997    0.87175958    0.05000000
opls_146-470    H    0.15122990    0.71237004    0.88435007    0.05000000
opls_146-471    H    0.10676009    0.64620988    0.36431044    0.05070000
opls_144-472    H    0.03638005    0.89948014    0.55407001    0.02990000
opls_144-473    H    0.06738005    0.64016015    0.54833025    0.02990000
opls_146-474    H    0.05736003    0.92221989    0.33489036    0.05000000
opls_146-475    H    0.06349015    0.97713013    0.08726948    0.05060000
opls_146-476    H    0.93442008    0.93961995    0.89885997    0.05000000
opls_146-477    H    0.92936003    0.88404004    0.14052048    0.05000000
opls_146-478    H    0.06925993    0.61665999    0.80736988    0.05000000
opls_146-479    H    0.06850985    0.55707007    0.03870013    0.05000000
opls_146-480    H    0.93336003    0.52846012    0.90228005    0.05060000
opls_146-481    H    0.93376009    0.58868001    0.68010964    0.05000000
opls_168-482    H    0.07780013    0.79409009    0.15164993    0.32910000
opls_168-483    H    0.95193994    0.79597998    0.29431968    0.32910000
