#======================================================================
# Crystal Data Generated By AuToFF
#----------------------------------------------------------------------

data_AuToFF_phase_1

_cell_length_a                         44.5577
_cell_length_b                         44.5577
_cell_length_c                         12.7497
_cell_angle_alpha                      90.00
_cell_angle_beta                       90.00
_cell_angle_gamma                      90.00
_symmetry_space_group_name_H-M_alt     'P 1'
_symmetry_space_group_IT_number        1

loop_
_space_group_symop_operation_xyz
   'x, y, z'

loop_
   _atom_site_label
   _atom_site_type_symbol
   _atom_site_fract_x
   _atom_site_fract_y
   _atom_site_fract_z
   _atom_site_charge
opls_145-0    C    0.05079010    0.51522992    0.33035993    -0.16950000
opls_145-1    C    0.07473007    0.51140005    0.40172004    -0.08810000
opls_145-2    C    0.07568995    0.48877994    0.48009992    0.07610000
opls_145-3    C    0.05156011    0.47057994    0.48488984    -0.12210000
opls_145-4    C    0.02773999    0.47435999    0.41404033    -0.13200000
opls_145-5    C    0.02684003    0.49657007    0.33393962    0.06380000
opls_145-6    C    0.12440992    0.50394006    0.56125007    -0.12380000
opls_145-7    C    0.10152005    0.48389998    0.55568994    -0.03930000
opls_145-8    C    0.15036997    0.47453010    0.69813015    0.23330000
opls_145-9    C    0.14859003    0.49942008    0.63163996    -0.17600000
opls_261-10    C    0.19695002    0.48106994    0.79978980    0.18720000
opls_145-11    C    0.72250991    0.99227990    0.34045978    0.05280000
opls_727-12    C    0.10392009    0.45902010    0.62335035    0.39020000
opls_145-13    C    0.12788003    0.45472993    0.69222021    -0.28480000
opls_166-14    C    0.24835999    0.98709000    0.49375985    0.16800000
opls_700-15    C    0.27559008    0.99485992    0.44836035    0.00460000
opls_145-16    C    0.94932997    0.98461994    0.93066974    -0.16540000
opls_145-17    C    0.92548000    0.98830999    0.85870020    -0.12640000
opls_145-18    C    0.92440992    0.01092000    0.77996031    0.09830000
opls_145-19    C    0.94848006    0.02929999    0.77647003    -0.11630000
opls_145-20    C    0.97220997    0.02565999    0.84788034    -0.08980000
opls_145-21    C    0.97317007    0.00340996    0.92771987    0.06500000
opls_145-22    C    0.87600011    0.99645000    0.71044966    -0.08760000
opls_145-23    C    0.90007990    0.01515989    0.70721037    -0.05970000
opls_145-24    C    0.85099994    0.02357999    0.56402033    0.23180000
opls_145-25    C    0.85174998    0.00048993    0.63997976    -0.16080000
opls_261-26    C    0.80351006    0.01723989    0.46868005    0.17730000
opls_145-27    C    0.27713010    0.50663993    0.93433963    -0.07050000
opls_727-28    C    0.89869989    0.03821001    0.62918029    0.40600000
opls_145-29    C    0.87462997    0.04201990    0.56041005    -0.27960000
opls_145-30    C    0.75196004    0.51348005    0.78245998    -0.08870000
opls_145-31    C    0.72512989    0.50607998    0.82801007    -0.09080000
opls_701-32    C    0.19779006    0.51072991    0.01648039    -0.23250000
opls_182-33    C    0.18651008    0.48330008    0.06993027    0.02730000
opls_182-34    C    0.18592005    0.46539004    0.24188020    -0.02030000
opls_182-35    C    0.19297001    0.48031002    0.35186004    -0.01030000
opls_182-36    C    0.20679007    0.52275993    0.41664980    -0.02250000
opls_182-37    C    0.23148996    0.53663003    0.35310007    -0.02810000
opls_182-38    C    0.24500008    0.56648009    0.21798003    -0.02100000
opls_182-39    C    0.24493993    0.55477998    0.09894037    -0.02120000
opls_145-40    C    0.55079010    0.01522992    0.83035993    -0.16950000
opls_145-41    C    0.57473007    0.01140005    0.90172004    -0.08810000
opls_145-42    C    0.57568995    0.98877994    0.98009992    0.07610000
opls_145-43    C    0.55156011    0.97057994    0.98488984    -0.12210000
opls_145-44    C    0.52773999    0.97435999    0.91404033    -0.13200000
opls_145-45    C    0.52684003    0.99657007    0.83393962    0.06380000
opls_145-46    C    0.62440992    0.00394006    0.06125007    -0.12380000
opls_145-47    C    0.60152005    0.98389998    0.05568994    -0.03930000
opls_145-48    C    0.65036997    0.97453010    0.19813015    0.23330000
opls_145-49    C    0.64859003    0.99942008    0.13163996    -0.17590000
opls_261-50    C    0.69695002    0.98106994    0.29978980    0.18700000
opls_145-51    C    0.22250991    0.49227990    0.84045978    0.05280000
opls_727-52    C    0.60392009    0.95902010    0.12335035    0.39040000
opls_145-53    C    0.62788003    0.95472993    0.19222021    -0.28470000
opls_166-54    C    0.74835999    0.48709000    0.99375985    0.16800000
opls_700-55    C    0.77559008    0.49485992    0.94836035    0.00460000
opls_145-56    C    0.44932997    0.48461994    0.43066974    -0.16540000
opls_145-57    C    0.42548000    0.48830999    0.35870020    -0.12640000
opls_145-58    C    0.42440992    0.51092000    0.27996031    0.09840000
opls_145-59    C    0.44848006    0.52929999    0.27647003    -0.11630000
opls_145-60    C    0.47220997    0.52565999    0.34788034    -0.08980000
opls_145-61    C    0.47317007    0.50340996    0.42771987    0.06500000
opls_145-62    C    0.37600011    0.49645000    0.21044966    -0.08760000
opls_145-63    C    0.40007990    0.51515989    0.20721037    -0.05970000
opls_145-64    C    0.35099994    0.52357999    0.06402033    0.23190000
opls_145-65    C    0.35174998    0.50048993    0.13997976    -0.16080000
opls_261-66    C    0.30351006    0.51723989    0.96868005    0.17730000
opls_145-67    C    0.77713010    0.00663993    0.43433963    -0.07050000
opls_727-68    C    0.39869989    0.53821001    0.12918029    0.40610000
opls_145-69    C    0.37462997    0.54201990    0.06041005    -0.27970000
opls_145-70    C    0.25196004    0.01348005    0.28245998    -0.08870000
opls_145-71    C    0.22513011    0.00607998    0.32801007    -0.09080000
opls_701-72    C    0.69779006    0.01072991    0.51648039    -0.23240000
opls_182-73    C    0.68651008    0.98330008    0.56993027    0.02730000
opls_182-74    C    0.68592005    0.96539004    0.74188020    -0.02030000
opls_182-75    C    0.69297001    0.98031002    0.85186004    -0.01030000
opls_182-76    C    0.70679007    0.02275993    0.91664980    -0.02250000
opls_182-77    C    0.73148996    0.03663003    0.85310007    -0.02820000
opls_182-78    C    0.74500008    0.06648009    0.71798003    -0.02100000
opls_182-79    C    0.74493993    0.05477998    0.59894037    -0.02110000
opls_145-80    C    0.44920990    0.98477008    0.83035993    -0.16950000
opls_145-81    C    0.42526993    0.98859995    0.90172004    -0.08810000
opls_145-82    C    0.42431005    0.01122006    0.98009992    0.07610000
opls_145-83    C    0.44843989    0.02942006    0.98488984    -0.12210000
opls_145-84    C    0.47226001    0.02564001    0.91404033    -0.13200000
opls_145-85    C    0.47315997    0.00342993    0.83393962    0.06380000
opls_145-86    C    0.37559008    0.99605994    0.06125007    -0.12380000
opls_145-87    C    0.39847995    0.01610002    0.05568994    -0.03930000
opls_145-88    C    0.34963003    0.02546990    0.19813015    0.23330000
opls_145-89    C    0.35140997    0.00057992    0.13163996    -0.17590000
opls_261-90    C    0.30304998    0.01893006    0.29978980    0.18710000
opls_145-91    C    0.77749009    0.50772010    0.84045978    0.05280000
opls_727-92    C    0.39607991    0.04097990    0.12335035    0.39020000
opls_145-93    C    0.37211997    0.04527007    0.19222021    -0.28480000
opls_166-94    C    0.25164001    0.51291000    0.99375985    0.16800000
opls_700-95    C    0.22440992    0.50514008    0.94836035    0.00460000
opls_145-96    C    0.55067003    0.51538006    0.43066974    -0.16540000
opls_145-97    C    0.57452000    0.51169001    0.35870020    -0.12640000
opls_145-98    C    0.57559008    0.48908000    0.27996031    0.09830000
opls_145-99    C    0.55151994    0.47070001    0.27647003    -0.11630000
opls_145-100    C    0.52779003    0.47434001    0.34788034    -0.08980000
opls_145-101    C    0.52682993    0.49659004    0.42771987    0.06500000
opls_145-102    C    0.62399989    0.50355000    0.21044966    -0.08760000
opls_145-103    C    0.59992010    0.48484011    0.20721037    -0.05970000
opls_145-104    C    0.64900006    0.47642001    0.06402033    0.23180000
opls_145-105    C    0.64825002    0.49951007    0.13997976    -0.16080000
opls_261-106    C    0.69648994    0.48276011    0.96868005    0.17730000
opls_145-107    C    0.22286990    0.99336007    0.43433963    -0.07040000
opls_727-108    C    0.60130011    0.46178999    0.12918029    0.40600000
opls_145-109    C    0.62537003    0.45798010    0.06041005    -0.27970000
opls_145-110    C    0.74803996    0.98651995    0.28245998    -0.08870000
opls_145-111    C    0.77487011    0.99392002    0.32801007    -0.09070000
opls_701-112    C    0.30220994    0.98927009    0.51648039    -0.23240000
opls_182-113    C    0.31348992    0.01669992    0.56993027    0.02730000
opls_182-114    C    0.31407995    0.03460996    0.74188020    -0.02030000
opls_182-115    C    0.30702999    0.01968998    0.85186004    -0.01030000
opls_182-116    C    0.29320993    0.97724007    0.91664980    -0.02250000
opls_182-117    C    0.26851004    0.96336997    0.85310007    -0.02820000
opls_182-118    C    0.25499992    0.93351991    0.71798003    -0.02100000
opls_182-119    C    0.25506007    0.94522002    0.59894037    -0.02120000
opls_145-120    C    0.94920990    0.48477008    0.33035993    -0.16950000
opls_145-121    C    0.92526993    0.48859995    0.40172004    -0.08810000
opls_145-122    C    0.92431005    0.51122006    0.48009992    0.07610000
opls_145-123    C    0.94843989    0.52942006    0.48488984    -0.12210000
opls_145-124    C    0.97226001    0.52564001    0.41404033    -0.13200000
opls_145-125    C    0.97315997    0.50342993    0.33393962    0.06380000
opls_145-126    C    0.87559008    0.49605994    0.56125007    -0.12380000
opls_145-127    C    0.89847995    0.51610002    0.55568994    -0.03930000
opls_145-128    C    0.84963003    0.52546990    0.69813015    0.23330000
opls_145-129    C    0.85140997    0.50057992    0.63163996    -0.17600000
opls_261-130    C    0.80304998    0.51893006    0.79978980    0.18700000
opls_145-131    C    0.27749009    0.00772010    0.34045978    0.05280000
opls_727-132    C    0.89607991    0.54097990    0.62335035    0.39020000
opls_145-133    C    0.87211997    0.54527007    0.69222021    -0.28470000
opls_166-134    C    0.75164001    0.01291000    0.49375985    0.16800000
opls_700-135    C    0.72440992    0.00514008    0.44836035    0.00460000
opls_145-136    C    0.05067003    0.01538006    0.93066974    -0.16540000
opls_145-137    C    0.07452000    0.01169001    0.85870020    -0.12640000
opls_145-138    C    0.07559008    0.98908000    0.77996031    0.09840000
opls_145-139    C    0.05151994    0.97070001    0.77647003    -0.11630000
opls_145-140    C    0.02779003    0.97434001    0.84788034    -0.08980000
opls_145-141    C    0.02682993    0.99659004    0.92771987    0.06500000
opls_145-142    C    0.12399989    0.00355000    0.71044966    -0.08760000
opls_145-143    C    0.09992010    0.98484011    0.70721037    -0.05970000
opls_145-144    C    0.14900006    0.97642001    0.56402033    0.23180000
opls_145-145    C    0.14825002    0.99951007    0.63997976    -0.16070000
opls_261-146    C    0.19648994    0.98276011    0.46868005    0.17730000
opls_145-147    C    0.72286990    0.49336007    0.93433963    -0.07050000
opls_727-148    C    0.10130011    0.96178999    0.62918029    0.40600000
opls_145-149    C    0.12537003    0.95798010    0.56041005    -0.27970000
opls_145-150    C    0.24803996    0.48651995    0.78245998    -0.08870000
opls_145-151    C    0.27486989    0.49392002    0.82801007    -0.09080000
opls_701-152    C    0.80220994    0.48927009    0.01648039    -0.23250000
opls_182-153    C    0.81348992    0.51669992    0.06993027    0.02730000
opls_182-154    C    0.81407995    0.53460996    0.24188020    -0.02030000
opls_182-155    C    0.80702999    0.51968998    0.35186004    -0.01030000
opls_182-156    C    0.79320993    0.47724007    0.41664980    -0.02250000
opls_182-157    C    0.76851004    0.46336997    0.35310007    -0.02820000
opls_182-158    C    0.75499992    0.43351991    0.21798003    -0.02100000
opls_182-159    C    0.75506007    0.44522002    0.09894037    -0.02120000
opls_145-160    C    0.48477008    0.55079010    0.58036032    -0.16950000
opls_145-161    C    0.48859995    0.57473007    0.65171965    -0.08810000
opls_145-162    C    0.51122006    0.57568995    0.73010032    0.07610000
opls_145-163    C    0.52942006    0.55156011    0.73489023    -0.12210000
opls_145-164    C    0.52564001    0.52773999    0.66403994    -0.13200000
opls_145-165    C    0.50342993    0.52684003    0.58394001    0.06380000
opls_145-166    C    0.49605994    0.62440992    0.81124968    -0.12380000
opls_145-167    C    0.51610002    0.60152005    0.80569033    -0.03930000
opls_145-168    C    0.52546990    0.65036997    0.94812976    0.23330000
opls_145-169    C    0.50057992    0.64859003    0.88164035    -0.17600000
opls_261-170    C    0.51893006    0.69695002    0.04979019    0.18700000
opls_145-171    C    0.00772010    0.22250991    0.59046017    0.05280000
opls_727-172    C    0.54097990    0.60392009    0.87334996    0.39020000
opls_145-173    C    0.54527007    0.62788003    0.94221982    -0.28470000
opls_166-174    C    0.01291000    0.74835999    0.74376025    0.16800000
opls_700-175    C    0.00514008    0.77559008    0.69835996    0.00460000
opls_145-176    C    0.01538006    0.44932997    0.18067013    -0.16540000
opls_145-177    C    0.01169001    0.42548000    0.10869981    -0.12640000
opls_145-178    C    0.98908000    0.42440992    0.02995992    0.09830000
opls_145-179    C    0.97070001    0.44848006    0.02646964    -0.11630000
opls_145-180    C    0.97434001    0.47220997    0.09787995    -0.08980000
opls_145-181    C    0.99659004    0.47317007    0.17772026    0.06500000
opls_145-182    C    0.00355000    0.37600011    0.96045005    -0.08760000
opls_145-183    C    0.98484011    0.40007990    0.95720997    -0.05970000
opls_145-184    C    0.97642001    0.35099994    0.81401994    0.23180000
opls_145-185    C    0.99951007    0.35174998    0.88998016    -0.16080000
opls_261-186    C    0.98276011    0.30351006    0.71867966    0.17730000
opls_145-187    C    0.49336007    0.77713010    0.18434002    -0.07050000
opls_727-188    C    0.96178999    0.39869989    0.87917990    0.40600000
opls_145-189    C    0.95798010    0.37462997    0.81040966    -0.27970000
opls_145-190    C    0.48651995    0.25196004    0.03246037    -0.08870000
opls_145-191    C    0.49392002    0.22513011    0.07800968    -0.09080000
opls_701-192    C    0.48927009    0.69779006    0.26648000    -0.23250000
opls_182-193    C    0.51669992    0.68651008    0.31992988    0.02730000
opls_182-194    C    0.53460996    0.68592005    0.49187981    -0.02030000
opls_182-195    C    0.51968998    0.69297001    0.60185965    -0.01030000
opls_182-196    C    0.47724007    0.70679007    0.66665020    -0.02250000
opls_182-197    C    0.46336997    0.73148996    0.60309968    -0.02820000
opls_182-198    C    0.43351991    0.74500008    0.46797964    -0.02100000
opls_182-199    C    0.44522002    0.74493993    0.34893998    -0.02120000
opls_145-200    C    0.98477008    0.05079010    0.08036032    -0.16940000
opls_145-201    C    0.98859995    0.07473007    0.15171965    -0.08810000
opls_145-202    C    0.01122006    0.07568995    0.23010032    0.07610000
opls_145-203    C    0.02942006    0.05156011    0.23489023    -0.12200000
opls_145-204    C    0.02564001    0.02773999    0.16403994    -0.13200000
opls_145-205    C    0.00342993    0.02684003    0.08394001    0.06380000
opls_145-206    C    0.99605994    0.12440992    0.31124968    -0.12370000
opls_145-207    C    0.01610002    0.10152005    0.30569033    -0.03930000
opls_145-208    C    0.02546990    0.15036997    0.44812976    0.23330000
opls_145-209    C    0.00057992    0.14859003    0.38164035    -0.17600000
opls_261-210    C    0.01893006    0.19695002    0.54979019    0.18700000
opls_145-211    C    0.50772010    0.72250991    0.09046017    0.05280000
opls_727-212    C    0.04097990    0.10392009    0.37334996    0.39030000
opls_145-213    C    0.04527007    0.12788003    0.44221982    -0.28480000
opls_166-214    C    0.51291000    0.24835999    0.24376025    0.16800000
opls_700-215    C    0.50514008    0.27559008    0.19835996    0.00460000
opls_145-216    C    0.51538006    0.94932997    0.68067013    -0.16540000
opls_145-217    C    0.51169001    0.92548000    0.60869981    -0.12640000
opls_145-218    C    0.48908000    0.92440992    0.52995992    0.09830000
opls_145-219    C    0.47070001    0.94848006    0.52646964    -0.11630000
opls_145-220    C    0.47434001    0.97220997    0.59787995    -0.08980000
opls_145-221    C    0.49659004    0.97317007    0.67772026    0.06500000
opls_145-222    C    0.50355000    0.87600011    0.46045005    -0.08760000
opls_145-223    C    0.48484011    0.90007990    0.45720997    -0.05970000
opls_145-224    C    0.47642001    0.85099994    0.31401994    0.23180000
opls_145-225    C    0.49951007    0.85174998    0.38998016    -0.16080000
opls_261-226    C    0.48276011    0.80351006    0.21867966    0.17730000
opls_145-227    C    0.99336007    0.27713010    0.68434002    -0.07050000
opls_727-228    C    0.46178999    0.89869989    0.37917990    0.40610000
opls_145-229    C    0.45798010    0.87462997    0.31040966    -0.27970000
opls_145-230    C    0.98651995    0.75196004    0.53246037    -0.08860000
opls_145-231    C    0.99392002    0.72512989    0.57800968    -0.09080000
opls_701-232    C    0.98927009    0.19779006    0.76648000    -0.23250000
opls_182-233    C    0.01669992    0.18651008    0.81992988    0.02730000
opls_182-234    C    0.03460996    0.18592005    0.99187981    -0.02030000
opls_182-235    C    0.01968998    0.19297001    0.10185965    -0.01030000
opls_182-236    C    0.97724007    0.20679007    0.16665020    -0.02250000
opls_182-237    C    0.96336997    0.23148996    0.10309968    -0.02820000
opls_182-238    C    0.93351991    0.24500008    0.96797964    -0.02100000
opls_182-239    C    0.94522002    0.24493993    0.84893998    -0.02120000
opls_145-240    C    0.01522992    0.94920990    0.08036032    -0.16950000
opls_145-241    C    0.01140005    0.92526993    0.15171965    -0.08810000
opls_145-242    C    0.98877994    0.92431005    0.23010032    0.07610000
opls_145-243    C    0.97057994    0.94843989    0.23489023    -0.12200000
opls_145-244    C    0.97435999    0.97226001    0.16403994    -0.13180000
opls_145-245    C    0.99657007    0.97315997    0.08394001    0.06380000
opls_145-246    C    0.00394006    0.87559008    0.31124968    -0.12380000
opls_145-247    C    0.98389998    0.89847995    0.30569033    -0.03930000
opls_145-248    C    0.97453010    0.84963003    0.44812976    0.23330000
opls_145-249    C    0.99942008    0.85140997    0.38164035    -0.17600000
opls_261-250    C    0.98106994    0.80304998    0.54979019    0.18700000
opls_145-251    C    0.49227990    0.27749009    0.09046017    0.05280000
opls_727-252    C    0.95902010    0.89607991    0.37334996    0.39030000
opls_145-253    C    0.95472993    0.87211997    0.44221982    -0.28480000
opls_166-254    C    0.48709000    0.75164001    0.24376025    0.16810000
opls_700-255    C    0.49485992    0.72440992    0.19835996    0.00460000
opls_145-256    C    0.48461994    0.05067003    0.68067013    -0.16540000
opls_145-257    C    0.48830999    0.07452000    0.60869981    -0.12630000
opls_145-258    C    0.51092000    0.07559008    0.52995992    0.09840000
opls_145-259    C    0.52929999    0.05151994    0.52646964    -0.11630000
opls_145-260    C    0.52565999    0.02779003    0.59787995    -0.08980000
opls_145-261    C    0.50340996    0.02682993    0.67772026    0.06500000
opls_145-262    C    0.49645000    0.12399989    0.46045005    -0.08760000
opls_145-263    C    0.51515989    0.09992010    0.45720997    -0.05970000
opls_145-264    C    0.52357999    0.14900006    0.31401994    0.23180000
opls_145-265    C    0.50048993    0.14825002    0.38998016    -0.16080000
opls_261-266    C    0.51723989    0.19648994    0.21867966    0.17730000
opls_145-267    C    0.00663993    0.72286990    0.68434002    -0.07050000
opls_727-268    C    0.53821001    0.10130011    0.37917990    0.40600000
opls_145-269    C    0.54201990    0.12537003    0.31040966    -0.27970000
opls_145-270    C    0.01348005    0.24803996    0.53246037    -0.08870000
opls_145-271    C    0.00607998    0.27486989    0.57800968    -0.09080000
opls_701-272    C    0.01072991    0.80220994    0.76648000    -0.23250000
opls_182-273    C    0.98330008    0.81348992    0.81992988    0.02730000
opls_182-274    C    0.96539004    0.81407995    0.99187981    -0.02030000
opls_182-275    C    0.98031002    0.80702999    0.10185965    -0.01030000
opls_182-276    C    0.02275993    0.79320993    0.16665020    -0.02250000
opls_182-277    C    0.03663003    0.76851004    0.10309968    -0.02820000
opls_182-278    C    0.06648009    0.75499992    0.96797964    -0.02100000
opls_182-279    C    0.05477998    0.75506007    0.84893998    -0.02120000
opls_145-280    C    0.51522992    0.44920990    0.58036032    -0.16950000
opls_145-281    C    0.51140005    0.42526993    0.65171965    -0.08810000
opls_145-282    C    0.48877994    0.42431005    0.73010032    0.07610000
opls_145-283    C    0.47057994    0.44843989    0.73489023    -0.12210000
opls_145-284    C    0.47435999    0.47226001    0.66403994    -0.13200000
opls_145-285    C    0.49657007    0.47315997    0.58394001    0.06380000
opls_145-286    C    0.50394006    0.37559008    0.81124968    -0.12380000
opls_145-287    C    0.48389998    0.39847995    0.80569033    -0.03930000
opls_145-288    C    0.47453010    0.34963003    0.94812976    0.23330000
opls_145-289    C    0.49942008    0.35140997    0.88164035    -0.17600000
opls_261-290    C    0.48106994    0.30304998    0.04979019    0.18710000
opls_145-291    C    0.99227990    0.77749009    0.59046017    0.05280000
opls_727-292    C    0.45902010    0.39607991    0.87334996    0.39030000
opls_145-293    C    0.45472993    0.37211997    0.94221982    -0.28480000
opls_166-294    C    0.98709000    0.25164001    0.74376025    0.16800000
opls_700-295    C    0.99485992    0.22440992    0.69835996    0.00460000
opls_145-296    C    0.98461994    0.55067003    0.18067013    -0.16540000
opls_145-297    C    0.98830999    0.57452000    0.10869981    -0.12640000
opls_145-298    C    0.01092000    0.57559008    0.02995992    0.09830000
opls_145-299    C    0.02929999    0.55151994    0.02646964    -0.11630000
opls_145-300    C    0.02565999    0.52779003    0.09787995    -0.08980000
opls_145-301    C    0.00340996    0.52682993    0.17772026    0.06510000
opls_145-302    C    0.99645000    0.62399989    0.96045005    -0.08760000
opls_145-303    C    0.01515989    0.59992010    0.95720997    -0.05970000
opls_145-304    C    0.02357999    0.64900006    0.81401994    0.23190000
opls_145-305    C    0.00048993    0.64825002    0.88998016    -0.16080000
opls_261-306    C    0.01723989    0.69648994    0.71867966    0.17730000
opls_145-307    C    0.50663993    0.22286990    0.18434002    -0.07050000
opls_727-308    C    0.03821001    0.60130011    0.87917990    0.40600000
opls_145-309    C    0.04201990    0.62537003    0.81040966    -0.27970000
opls_145-310    C    0.51348005    0.74803996    0.03246037    -0.08870000
opls_145-311    C    0.50607998    0.77487011    0.07800968    -0.09060000
opls_701-312    C    0.51072991    0.30220994    0.26648000    -0.23240000
opls_182-313    C    0.48330008    0.31348992    0.31992988    0.02730000
opls_182-314    C    0.46539004    0.31407995    0.49187981    -0.02030000
opls_182-315    C    0.48031002    0.30702999    0.60185965    -0.01030000
opls_182-316    C    0.52275993    0.29320993    0.66665020    -0.02250000
opls_182-317    C    0.53663003    0.26851004    0.60309968    -0.02820000
opls_182-318    C    0.56648009    0.25499992    0.46797964    -0.02100000
opls_182-319    C    0.55477998    0.25506007    0.34893998    -0.02120000
opls_139-320    C    1.00000000    0.50000000    0.25586014    0.03420000
opls_139-321    C    0.50000000    1.00000000    0.75586014    0.03420000
opls_139-322    C    0.50000000    0.50000000    0.50585975    0.03420000
opls_139-323    C    1.00000000    1.00000000    0.00585975    0.03420000
opls_750-324    N    0.17403995    0.46745995    0.77193973    -0.25390000
opls_750-325    N    0.82732996    0.03010007    0.48942014    -0.24150000
opls_750-326    N    0.67403995    0.96745995    0.27193973    -0.25390000
opls_750-327    N    0.32732996    0.53010007    0.98942014    -0.24150000
opls_750-328    N    0.32596005    0.03254005    0.27193973    -0.25390000
opls_750-329    N    0.67267004    0.46989993    0.98942014    -0.24150000
opls_750-330    N    0.82596005    0.53254005    0.77193973    -0.25390000
opls_750-331    N    0.17267004    0.96989993    0.48942014    -0.24140000
opls_750-332    N    0.53254005    0.67403995    0.02194012    -0.25390000
opls_750-333    N    0.96989993    0.32732996    0.73941975    -0.24150000
opls_750-334    N    0.03254005    0.17403995    0.52194012    -0.25380000
opls_750-335    N    0.46989993    0.82732996    0.23941975    -0.24130000
opls_750-336    N    0.96745995    0.82596005    0.52194012    -0.25390000
opls_750-337    N    0.53010007    0.17267004    0.23941975    -0.24150000
opls_750-338    N    0.46745995    0.32596005    0.02194012    -0.25390000
opls_750-339    N    0.03010007    0.67267004    0.73941975    -0.24150000
opls_719-340    F    0.08083990    0.94360997    0.61899966    -0.23620000
opls_719-341    F    0.91656010    0.56166992    0.62319976    -0.12330000
opls_719-342    F    0.58083990    0.44360997    0.11899966    -0.23610000
opls_719-343    F    0.41656010    0.06166992    0.12319976    -0.12330000
opls_719-344    F    0.41916010    0.55639003    0.11899966    -0.23610000
opls_719-345    F    0.58343990    0.93833008    0.12319976    -0.12330000
opls_719-346    F    0.91916010    0.05639003    0.61899966    -0.23620000
opls_719-347    F    0.08343990    0.43833008    0.62319976    -0.12320000
opls_719-348    F    0.05639003    0.58083990    0.86900005    -0.23610000
opls_719-349    F    0.43833008    0.41656010    0.87320015    -0.12330000
opls_719-350    F    0.55639003    0.08083990    0.36900005    -0.23620000
opls_719-351    F    0.93833008    0.91656010    0.37320015    -0.12330000
opls_719-352    F    0.44360997    0.91916010    0.36900005    -0.23610000
opls_719-353    F    0.06166992    0.08343990    0.37320015    -0.12330000
opls_719-354    F    0.94360997    0.41916010    0.86900005    -0.23610000
opls_719-355    F    0.56166992    0.58343990    0.87320015    -0.12330000
opls_179-356    O    0.25350007    0.52551007    0.10013020    -0.20760000
opls_180-357    O    0.22088999    0.55657990    0.27595002    -0.13020000
opls_180-358    O    0.18777989    0.50971998    0.34160019    -0.14090000
opls_180-359    O    0.20451998    0.47484004    0.15764998    -0.20070000
opls_179-360    O    0.75350007    0.02551007    0.60013020    -0.20760000
opls_180-361    O    0.72088999    0.05657990    0.77595002    -0.13020000
opls_180-362    O    0.68777989    0.00971998    0.84160019    -0.14090000
opls_180-363    O    0.70451998    0.97484004    0.65764998    -0.20080000
opls_179-364    O    0.24649993    0.97448993    0.60013020    -0.20760000
opls_180-365    O    0.27911001    0.94342010    0.77595002    -0.13010000
opls_180-366    O    0.31222011    0.99028002    0.84160019    -0.14090000
opls_180-367    O    0.29548002    0.02515996    0.65764998    -0.20080000
opls_179-368    O    0.74649993    0.47448993    0.10013020    -0.20760000
opls_180-369    O    0.77911001    0.44342010    0.27595002    -0.13020000
opls_180-370    O    0.81222011    0.49028002    0.34160019    -0.14090000
opls_180-371    O    0.79548002    0.52515996    0.15764998    -0.20080000
opls_179-372    O    0.47448993    0.75350007    0.35012981    -0.20750000
opls_180-373    O    0.44342010    0.72088999    0.52594963    -0.13020000
opls_180-374    O    0.49028002    0.68777989    0.59159980    -0.14090000
opls_180-375    O    0.52515996    0.70451998    0.40765038    -0.20080000
opls_179-376    O    0.97448993    0.25350007    0.85012981    -0.20760000
opls_180-377    O    0.94342010    0.22088999    0.02594963    -0.13020000
opls_180-378    O    0.99028002    0.18777989    0.09159980    -0.14090000
opls_180-379    O    0.02515996    0.20451998    0.90765038    -0.20080000
opls_179-380    O    0.02551007    0.74649993    0.85012981    -0.20760000
opls_180-381    O    0.05657990    0.77911001    0.02594963    -0.13020000
opls_180-382    O    0.00971998    0.81222011    0.09159980    -0.14090000
opls_180-383    O    0.97484004    0.79548002    0.90765038    -0.20080000
opls_179-384    O    0.52551007    0.24649993    0.35012981    -0.20760000
opls_180-385    O    0.55657990    0.27911001    0.52594963    -0.13020000
opls_180-386    O    0.50971998    0.31222011    0.59159980    -0.14090000
opls_180-387    O    0.47484004    0.29548002    0.40765038    -0.20080000
opls_146-388    H    0.05042989    0.53374995    0.26777963    0.04250000
opls_146-389    H    0.09372005    0.52677001    0.39643992    0.11400000
opls_146-390    H    0.05097009    0.45210996    0.54767014    0.04250000
opls_146-391    H    0.00855991    0.45924992    0.42067970    0.11580000
opls_146-392    H    0.12302004    0.52409999    0.50722997    0.04580000
opls_146-393    H    0.16659994    0.51597995    0.63432002    0.11400000
opls_146-394    H    0.12867989    0.43426007    0.74460968    0.04800000
opls_146-395    H    0.94970005    0.96609991    0.99326023    0.04250000
opls_146-396    H    0.90656991    0.97283006    0.86354032    0.11400000
opls_146-397    H    0.94911003    0.04787007    0.71416033    0.04250000
opls_146-398    H    0.99128007    0.04093007    0.84189981    0.11520000
opls_146-399    H    0.87654996    0.97774010    0.77209974    0.04250000
opls_146-400    H    0.83283989    0.98499990    0.64495008    0.11860000
opls_146-401    H    0.87475004    0.06098991    0.49990039    0.04250000
opls_146-402    H    0.75321998    0.52436010    0.69683993    0.03980000
opls_146-403    H    0.70466990    0.51041010    0.77831008    0.04730000
opls_702-404    H    0.20297008    0.52693003    0.08536985    0.10440000
opls_702-405    H    0.18068011    0.52013008    0.95870962    0.10750000
opls_185-406    H    0.16397996    0.48723992    0.10406990    0.06170000
opls_185-407    H    0.18569002    0.46562996    0.00374989    0.04010000
opls_185-408    H    0.18836004    0.44120006    0.25286007    0.08090000
opls_185-409    H    0.16284997    0.47055997    0.21719962    0.07530000
opls_185-410    H    0.17896009    0.47111992    0.42164992    0.04010000
opls_185-411    H    0.21655000    0.47663995    0.37320015    0.08060000
opls_185-412    H    0.21565004    0.50588989    0.47676024    0.04250000
opls_185-413    H    0.19496989    0.53996010    0.46666980    0.05730000
opls_185-414    H    0.24629997    0.54796006    0.41512977    0.04070000
opls_185-415    H    0.24405007    0.51929992    0.30661976    0.06050000
opls_185-416    H    0.26526010    0.55902010    0.26310031    0.06160000
opls_185-417    H    0.24463000    0.59094006    0.21496976    0.07590000
opls_185-418    H    0.22241004    0.55658999    0.06222029    0.06270000
opls_185-419    H    0.26055003    0.56770996    0.04525989    0.04320000
opls_146-420    H    0.55042989    0.03374995    0.76777963    0.04250000
opls_146-421    H    0.59372005    0.02677001    0.89643992    0.11400000
opls_146-422    H    0.55097009    0.95210996    0.04767014    0.04250000
opls_146-423    H    0.50855991    0.95924992    0.92067970    0.11580000
opls_146-424    H    0.62302004    0.02409999    0.00722997    0.04580000
opls_146-425    H    0.66659994    0.01597995    0.13432002    0.11400000
opls_146-426    H    0.62867989    0.93426007    0.24460968    0.04800000
opls_146-427    H    0.44970005    0.46609991    0.49326023    0.04250000
opls_146-428    H    0.40656991    0.47283006    0.36354032    0.11410000
opls_146-429    H    0.44911003    0.54787007    0.21416033    0.04250000
opls_146-430    H    0.49128007    0.54093007    0.34189981    0.11520000
opls_146-431    H    0.37654996    0.47774010    0.27209974    0.04250000
opls_146-432    H    0.33283989    0.48499990    0.14495008    0.11860000
opls_146-433    H    0.37475004    0.56098991    0.99990039    0.04250000
opls_146-434    H    0.25321998    0.02436010    0.19683993    0.03980000
opls_146-435    H    0.20466990    0.01041010    0.27831008    0.04740000
opls_702-436    H    0.70297008    0.02693003    0.58536985    0.10440000
opls_702-437    H    0.68068011    0.02013008    0.45870962    0.10750000
opls_185-438    H    0.66397996    0.98723992    0.60406990    0.06170000
opls_185-439    H    0.68569002    0.96562996    0.50374989    0.04010000
opls_185-440    H    0.68836004    0.94120006    0.75286007    0.08090000
opls_185-441    H    0.66284997    0.97055997    0.71719962    0.07520000
opls_185-442    H    0.67896009    0.97111992    0.92164992    0.04010000
opls_185-443    H    0.71655000    0.97663995    0.87320015    0.08060000
opls_185-444    H    0.71565004    0.00588989    0.97676024    0.04250000
opls_185-445    H    0.69496989    0.03996010    0.96666980    0.05720000
opls_185-446    H    0.74629997    0.04796006    0.91512977    0.04070000
opls_185-447    H    0.74405007    0.01929992    0.80661976    0.06050000
opls_185-448    H    0.76526010    0.05902010    0.76310031    0.06160000
opls_185-449    H    0.74463000    0.09094006    0.71496976    0.07580000
opls_185-450    H    0.72241004    0.05658999    0.56222029    0.06270000
opls_185-451    H    0.76055003    0.06770996    0.54525989    0.04320000
opls_146-452    H    0.44957011    0.96625005    0.76777963    0.04250000
opls_146-453    H    0.40627995    0.97322999    0.89643992    0.11400000
opls_146-454    H    0.44902991    0.04789004    0.04767014    0.04250000
opls_146-455    H    0.49144009    0.04075008    0.92067970    0.11580000
opls_146-456    H    0.37697996    0.97590001    0.00722997    0.04580000
opls_146-457    H    0.33340006    0.98402005    0.13432002    0.11400000
opls_146-458    H    0.37132011    0.06573993    0.24460968    0.04810000
opls_146-459    H    0.55029995    0.53390009    0.49326023    0.04250000
opls_146-460    H    0.59343009    0.52716994    0.36354032    0.11400000
opls_146-461    H    0.55088997    0.45212993    0.21416033    0.04250000
opls_146-462    H    0.50871993    0.45906993    0.34189981    0.11520000
opls_146-463    H    0.62345004    0.52225990    0.27209974    0.04250000
opls_146-464    H    0.66716011    0.51500010    0.14495008    0.11860000
opls_146-465    H    0.62524996    0.43901009    0.99990039    0.04250000
opls_146-466    H    0.74678002    0.97563990    0.19683993    0.03980000
opls_146-467    H    0.79533010    0.98958990    0.27831008    0.04730000
opls_702-468    H    0.29702992    0.97306997    0.58536985    0.10440000
opls_702-469    H    0.31931989    0.97986992    0.45870962    0.10760000
opls_185-470    H    0.33602004    0.01276008    0.60406990    0.06170000
opls_185-471    H    0.31430998    0.03437004    0.50374989    0.04010000
opls_185-472    H    0.31163996    0.05879994    0.75286007    0.08090000
opls_185-473    H    0.33715003    0.02944003    0.71719962    0.07520000
opls_185-474    H    0.32103991    0.02888008    0.92164992    0.04010000
opls_185-475    H    0.28345000    0.02336005    0.87320015    0.08070000
opls_185-476    H    0.28434996    0.99411011    0.97676024    0.04250000
opls_185-477    H    0.30503011    0.96003990    0.96666980    0.05720000
opls_185-478    H    0.25370003    0.95203994    0.91512977    0.04070000
opls_185-479    H    0.25594993    0.98070008    0.80661976    0.06050000
opls_185-480    H    0.23473990    0.94097990    0.76310031    0.06160000
opls_185-481    H    0.25537000    0.90905994    0.71496976    0.07580000
opls_185-482    H    0.27758996    0.94341001    0.56222029    0.06270000
opls_185-483    H    0.23944997    0.93229004    0.54525989    0.04320000
opls_146-484    H    0.94957011    0.46625005    0.26777963    0.04250000
opls_146-485    H    0.90627995    0.47322999    0.39643992    0.11400000
opls_146-486    H    0.94902991    0.54789004    0.54767014    0.04250000
opls_146-487    H    0.99144009    0.54075008    0.42067970    0.11580000
opls_146-488    H    0.87697996    0.47590001    0.50722997    0.04580000
opls_146-489    H    0.83340006    0.48402005    0.63432002    0.11400000
opls_146-490    H    0.87132011    0.56573993    0.74460968    0.04800000
opls_146-491    H    0.05029995    0.03390009    0.99326023    0.04250000
opls_146-492    H    0.09343009    0.02716994    0.86354032    0.11400000
opls_146-493    H    0.05088997    0.95212993    0.71416033    0.04250000
opls_146-494    H    0.00871993    0.95906993    0.84189981    0.11520000
opls_146-495    H    0.12345004    0.02225990    0.77209974    0.04250000
opls_146-496    H    0.16716011    0.01500010    0.64495008    0.11860000
opls_146-497    H    0.12524996    0.93901009    0.49990039    0.04250000
opls_146-498    H    0.24678002    0.47563990    0.69683993    0.03980000
opls_146-499    H    0.29533010    0.48958990    0.77831008    0.04730000
opls_702-500    H    0.79702992    0.47306997    0.08536985    0.10440000
opls_702-501    H    0.81931989    0.47986992    0.95870962    0.10750000
opls_185-502    H    0.83602004    0.51276008    0.10406990    0.06170000
opls_185-503    H    0.81430998    0.53437004    0.00374989    0.04010000
opls_185-504    H    0.81163996    0.55879994    0.25286007    0.08090000
opls_185-505    H    0.83715003    0.52944003    0.21719962    0.07520000
opls_185-506    H    0.82103991    0.52888008    0.42164992    0.04010000
opls_185-507    H    0.78345000    0.52336005    0.37320015    0.08060000
opls_185-508    H    0.78434996    0.49411011    0.47676024    0.04260000
opls_185-509    H    0.80503011    0.46003990    0.46666980    0.05720000
opls_185-510    H    0.75370003    0.45203994    0.41512977    0.04070000
opls_185-511    H    0.75594993    0.48070008    0.30661976    0.06050000
opls_185-512    H    0.73473990    0.44097990    0.26310031    0.06160000
opls_185-513    H    0.75537000    0.40905994    0.21496976    0.07580000
opls_185-514    H    0.77758996    0.44341001    0.06222029    0.06270000
opls_185-515    H    0.73944997    0.43229004    0.04525989    0.04320000
opls_146-516    H    0.46625005    0.55042989    0.51778003    0.04250000
opls_146-517    H    0.47322999    0.59372005    0.64644031    0.11400000
opls_146-518    H    0.54789004    0.55097009    0.79766975    0.04250000
opls_146-519    H    0.54075008    0.50855991    0.67068009    0.11580000
opls_146-520    H    0.47590001    0.62302004    0.75723037    0.04580000
opls_146-521    H    0.48402005    0.66659994    0.88431963    0.11400000
opls_146-522    H    0.56573993    0.62867989    0.99461007    0.04800000
opls_146-523    H    0.03390009    0.44970005    0.24325984    0.04250000
opls_146-524    H    0.02716994    0.40656991    0.11353993    0.11400000
opls_146-525    H    0.95212993    0.44911003    0.96415994    0.04250000
opls_146-526    H    0.95906993    0.49128007    0.09190020    0.11520000
opls_146-527    H    0.02225990    0.37654996    0.02210013    0.04250000
opls_146-528    H    0.01500010    0.33283989    0.89494969    0.11860000
opls_146-529    H    0.93901009    0.37475004    0.74990000    0.04250000
opls_146-530    H    0.47563990    0.25321998    0.94684032    0.03980000
opls_146-531    H    0.48958990    0.20466990    0.02830969    0.04740000
opls_702-532    H    0.47306997    0.70297008    0.33537024    0.10440000
opls_702-533    H    0.47986992    0.68068011    0.20871001    0.10750000
opls_185-534    H    0.51276008    0.66397996    0.35407029    0.06170000
opls_185-535    H    0.53437004    0.68569002    0.25375028    0.04010000
opls_185-536    H    0.55879994    0.68836004    0.50285968    0.08090000
opls_185-537    H    0.52944003    0.66284997    0.46720001    0.07520000
opls_185-538    H    0.52888008    0.67896009    0.67165031    0.04010000
opls_185-539    H    0.52336005    0.71655000    0.62319976    0.08060000
opls_185-540    H    0.49411011    0.71565004    0.72675985    0.04250000
opls_185-541    H    0.46003990    0.69496989    0.71667020    0.05720000
opls_185-542    H    0.45203994    0.74629997    0.66513016    0.04070000
opls_185-543    H    0.48070008    0.74405007    0.55662016    0.06050000
opls_185-544    H    0.44097990    0.76526010    0.51309992    0.06160000
opls_185-545    H    0.40905994    0.74463000    0.46497016    0.07580000
opls_185-546    H    0.44341001    0.72241004    0.31221990    0.06270000
opls_185-547    H    0.43229004    0.76055003    0.29526028    0.04320000
opls_146-548    H    0.96625005    0.05042989    0.01778003    0.04250000
opls_146-549    H    0.97322999    0.09372005    0.14644031    0.11400000
opls_146-550    H    0.04789004    0.05097009    0.29766975    0.04250000
opls_146-551    H    0.04075008    0.00855991    0.17068009    0.11580000
opls_146-552    H    0.97590001    0.12302004    0.25723037    0.04580000
opls_146-553    H    0.98402005    0.16659994    0.38431963    0.11400000
opls_146-554    H    0.06573993    0.12867989    0.49461007    0.04800000
opls_146-555    H    0.53390009    0.94970005    0.74325984    0.04250000
opls_146-556    H    0.52716994    0.90656991    0.61353993    0.11400000
opls_146-557    H    0.45212993    0.94911003    0.46415994    0.04250000
opls_146-558    H    0.45906993    0.99128007    0.59190020    0.11520000
opls_146-559    H    0.52225990    0.87654996    0.52210013    0.04250000
opls_146-560    H    0.51500010    0.83283989    0.39494969    0.11860000
opls_146-561    H    0.43901009    0.87475004    0.24990000    0.04250000
opls_146-562    H    0.97563990    0.75321998    0.44684032    0.03980000
opls_146-563    H    0.98958990    0.70466990    0.52830969    0.04730000
opls_702-564    H    0.97306997    0.20297008    0.83537024    0.10440000
opls_702-565    H    0.97986992    0.18068011    0.70871001    0.10760000
opls_185-566    H    0.01276008    0.16397996    0.85407029    0.06170000
opls_185-567    H    0.03437004    0.18569002    0.75375028    0.04010000
opls_185-568    H    0.05879994    0.18836004    0.00285968    0.08090000
opls_185-569    H    0.02944003    0.16284997    0.96720001    0.07520000
opls_185-570    H    0.02888008    0.17896009    0.17165031    0.04010000
opls_185-571    H    0.02336005    0.21655000    0.12319976    0.08060000
opls_185-572    H    0.99411011    0.21565004    0.22675985    0.04250000
opls_185-573    H    0.96003990    0.19496989    0.21667020    0.05720000
opls_185-574    H    0.95203994    0.24629997    0.16513016    0.04070000
opls_185-575    H    0.98070008    0.24405007    0.05662016    0.06050000
opls_185-576    H    0.94097990    0.26526010    0.01309992    0.06160000
opls_185-577    H    0.90905994    0.24463000    0.96497016    0.07580000
opls_185-578    H    0.94341001    0.22241004    0.81221990    0.06270000
opls_185-579    H    0.93229004    0.26055003    0.79526028    0.04320000
opls_146-580    H    0.03374995    0.94957011    0.01778003    0.04250000
opls_146-581    H    0.02677001    0.90627995    0.14644031    0.11400000
opls_146-582    H    0.95210996    0.94902991    0.29766975    0.04250000
opls_146-583    H    0.95924992    0.99144009    0.17068009    0.11580000
opls_146-584    H    0.02409999    0.87697996    0.25723037    0.04580000
opls_146-585    H    0.01597995    0.83340006    0.38431963    0.11420000
opls_146-586    H    0.93426007    0.87132011    0.49461007    0.04800000
opls_146-587    H    0.46609991    0.05029995    0.74325984    0.04250000
opls_146-588    H    0.47283006    0.09343009    0.61353993    0.11400000
opls_146-589    H    0.54787007    0.05088997    0.46415994    0.04250000
opls_146-590    H    0.54093007    0.00871993    0.59190020    0.11520000
opls_146-591    H    0.47774010    0.12345004    0.52210013    0.04250000
opls_146-592    H    0.48499990    0.16716011    0.39494969    0.11860000
opls_146-593    H    0.56098991    0.12524996    0.24990000    0.04250000
opls_146-594    H    0.02436010    0.24678002    0.44684032    0.03980000
opls_146-595    H    0.01041010    0.29533010    0.52830969    0.04730000
opls_702-596    H    0.02693003    0.79702992    0.83537024    0.10440000
opls_702-597    H    0.02013008    0.81931989    0.70871001    0.10750000
opls_185-598    H    0.98723992    0.83602004    0.85407029    0.06170000
opls_185-599    H    0.96562996    0.81430998    0.75375028    0.04010000
opls_185-600    H    0.94120006    0.81163996    0.00285968    0.08090000
opls_185-601    H    0.97055997    0.83715003    0.96720001    0.07520000
opls_185-602    H    0.97111992    0.82103991    0.17165031    0.04010000
opls_185-603    H    0.97663995    0.78345000    0.12319976    0.08060000
opls_185-604    H    0.00588989    0.78434996    0.22675985    0.04250000
opls_185-605    H    0.03996010    0.80503011    0.21667020    0.05730000
opls_185-606    H    0.04796006    0.75370003    0.16513016    0.04070000
opls_185-607    H    0.01929992    0.75594993    0.05662016    0.06050000
opls_185-608    H    0.05902010    0.73473990    0.01309992    0.06160000
opls_185-609    H    0.09094006    0.75537000    0.96497016    0.07580000
opls_185-610    H    0.05658999    0.77758996    0.81221990    0.06270000
opls_185-611    H    0.06770996    0.73944997    0.79526028    0.04320000
opls_146-612    H    0.53374995    0.44957011    0.51778003    0.04250000
opls_146-613    H    0.52677001    0.40627995    0.64644031    0.11400000
opls_146-614    H    0.45210996    0.44902991    0.79766975    0.04250000
opls_146-615    H    0.45924992    0.49144009    0.67068009    0.11580000
opls_146-616    H    0.52409999    0.37697996    0.75723037    0.04580000
opls_146-617    H    0.51597995    0.33340006    0.88431963    0.11400000
opls_146-618    H    0.43426007    0.37132011    0.99461007    0.04810000
opls_146-619    H    0.96609991    0.55029995    0.24325984    0.04250000
opls_146-620    H    0.97283006    0.59343009    0.11353993    0.11410000
opls_146-621    H    0.04787007    0.55088997    0.96415994    0.04250000
opls_146-622    H    0.04093007    0.50871993    0.09190020    0.11520000
opls_146-623    H    0.97774010    0.62345004    0.02210013    0.04250000
opls_146-624    H    0.98499990    0.66716011    0.89494969    0.11860000
opls_146-625    H    0.06098991    0.62524996    0.74990000    0.04250000
opls_146-626    H    0.52436010    0.74678002    0.94684032    0.03980000
opls_146-627    H    0.51041010    0.79533010    0.02830969    0.04730000
opls_702-628    H    0.52693003    0.29702992    0.33537024    0.10440000
opls_702-629    H    0.52013008    0.31931989    0.20871001    0.10750000
opls_185-630    H    0.48723992    0.33602004    0.35407029    0.06180000
opls_185-631    H    0.46562996    0.31430998    0.25375028    0.04010000
opls_185-632    H    0.44120006    0.31163996    0.50285968    0.08090000
opls_185-633    H    0.47055997    0.33715003    0.46720001    0.07520000
opls_185-634    H    0.47111992    0.32103991    0.67165031    0.04010000
opls_185-635    H    0.47663995    0.28345000    0.62319976    0.08060000
opls_185-636    H    0.50588989    0.28434996    0.72675985    0.04250000
opls_185-637    H    0.53996010    0.30503011    0.71667020    0.05720000
opls_185-638    H    0.54796006    0.25370003    0.66513016    0.04070000
opls_185-639    H    0.51929992    0.25594993    0.55662016    0.06050000
opls_185-640    H    0.55902010    0.23473990    0.51309992    0.06160000
opls_185-641    H    0.59094006    0.25537000    0.46497016    0.07580000
opls_185-642    H    0.55658999    0.27758996    0.31221990    0.06270000
opls_185-643    H    0.56770996    0.23944997    0.29526028    0.04320000
