#======================================================================
# Crystal Data Generated By AuToFF
#----------------------------------------------------------------------

data_AuToFF_phase_1

_cell_length_a                         18.8281
_cell_length_b                         18.7227
_cell_length_c                         3.6125
_cell_angle_alpha                      90.00
_cell_angle_beta                       90.00
_cell_angle_gamma                      120.00
_symmetry_space_group_name_H-M_alt     'P 1'
_symmetry_space_group_IT_number        1

loop_
_space_group_symop_operation_xyz
   'x, y, z'

loop_
   _atom_site_label
   _atom_site_type_symbol
   _atom_site_fract_x
   _atom_site_fract_y
   _atom_site_fract_z
   _atom_site_charge
opls_700-0    C    0.17580022    0.11090005    0.30259931    0.07550000
opls_145-1    C    0.22549963    0.08119978    0.15430035    -0.12380000
opls_145-2    C    0.31089981    0.12849991    0.15830035    -0.17840000
opls_145-3    C    0.35070018    0.20860005    0.31200000    0.20780000
opls_145-4    C    0.30139974    0.23889979    0.45769965    -0.17640000
opls_145-5    C    0.21619995    0.19090027    0.45580069    -0.13670000
opls_142-6    C    0.48740005    0.23469980    0.31570104    0.10870000
opls_700-7    C    0.95009990    0.05160004    0.29000138    0.07500000
opls_700-8    C    0.89940036    0.09190019    0.28569965    0.07550000
opls_145-9    C    0.92799970    0.17119980    0.43590035    -0.12380000
opls_145-10    C    0.87979977    0.20860005    0.43440000    -0.18680000
opls_145-11    C    0.80009967    0.16769981    0.28150035    0.21240000
opls_145-12    C    0.77090006    0.08809985    0.13379931    -0.17900000
opls_142-13    C    0.77229977    0.27770003    0.27459931    0.09300000
opls_142-14    C    0.72959984    0.52059999    0.25990035    0.08640000
opls_145-15    C    0.81979998    0.05160004    0.13309896    -0.11610000
opls_145-16    C    0.03640021    0.09840000    0.29730104    -0.12270000
opls_700-17    C    0.08500026    0.06050019    0.29590035    0.07380000
opls_145-18    C    0.04530015    0.97380034    0.28739931    -0.12010000
opls_700-19    C    0.95910004    0.92500029    0.28290104    0.07410000
opls_145-20    C    0.91260023    0.96490018    0.28460069    -0.12010000
opls_145-21    C    0.84039991    0.65790014    0.26140069    0.20780000
opls_145-22    C    0.80060018    0.69780003    0.41689965    -0.17840000
opls_145-23    C    0.83900020    0.78369997    0.42269896    -0.12360000
opls_700-24    C    0.91829999    0.83360028    0.27549896    0.07580000
opls_145-25    C    0.95760008    0.79330012    0.12130104    -0.11610000
opls_145-26    C    0.92009981    0.70760001    0.11670035    -0.17980000
opls_700-27    C    0.69599972    0.43069988    0.27320138    0.07270000
opls_145-28    C    0.74800038    0.39680024    0.27219931    -0.11990000
opls_700-29    C    0.71600037    0.31090030    0.28409965    0.06080000
opls_145-30    C    0.63019994    0.25860026    0.29990035    -0.12270000
opls_700-31    C    0.57689982    0.29090009    0.29960138    0.06080000
opls_145-32    C    0.61060004    0.37710038    0.28489965    -0.12000000
opls_750-33    N    0.43620011    0.26140026    0.30679862    -0.27620000
opls_750-34    N    0.74659981    0.19979981    0.28669896    -0.27510000
opls_750-35    N    0.80740004    0.57190029    0.26310035    -0.27410000
opls_146-36    H    0.19659990    0.01979977    0.02550035    0.10940000
opls_146-37    H    0.34720017    0.10380016    0.03170104    0.06950000
opls_146-38    H    0.33089976    0.30079997    0.58189896    0.10860000
opls_146-39    H    0.17999984    0.21620011    0.57879862    0.12020000
opls_146-40    H    0.98910033    0.20420024    0.56390035    0.11250000
opls_146-41    H    0.90370027    0.26970032    0.56210104    0.12020000
opls_146-42    H    0.70939985    0.05529985    0.01010104    0.06530000
opls_146-43    H    0.79540019    0.99029994    0.00790035    0.07260000
opls_146-44    H    0.06649980    0.16600008    0.29479862    0.11430000
opls_146-45    H    0.08230030    0.94340007    0.29379931    0.06950000
opls_146-46    H    0.84529992    0.92749993    0.28099931    0.11180000
opls_146-47    H    0.73970010    0.66120031    0.54280138    0.07420000
opls_146-48    H    0.80689987    0.81270025    0.55229896    0.06930000
opls_146-49    H    0.01900026    0.82990046    0.99920000    0.07100000
opls_146-50    H    0.95200035    0.67800026    0.99149896    0.09190000
opls_144-51    H    0.46690029    0.16730016    0.34099931    0.04740000
opls_144-52    H    0.68300019    0.54140011    0.24300069    0.04810000
opls_146-53    H    0.81469989    0.43860030    0.26060069    0.07100000
opls_146-54    H    0.56889989    0.40230031    0.28429896    0.10620000
opls_144-55    H    0.83930004    0.32490026    0.24819931    0.04810000
opls_146-56    H    0.60509962    0.19149974    0.31020069    0.10860000
