#======================================================================
# Crystal Data Generated By AuToFF
#----------------------------------------------------------------------

data_AuToFF_phase_1

_cell_length_a                         55.4800
_cell_length_b                         55.4800
_cell_length_c                         9.1000
_cell_angle_alpha                      90.00
_cell_angle_beta                       90.00
_cell_angle_gamma                      120.00
_symmetry_space_group_name_H-M_alt     'P 1'
_symmetry_space_group_IT_number        1

loop_
_space_group_symop_operation_xyz
   'x, y, z'

loop_
   _atom_site_label
   _atom_site_type_symbol
   _atom_site_fract_x
   _atom_site_fract_y
   _atom_site_fract_z
   _atom_site_charge
opls_700-0    C    0.03038010    0.53867008    0.52813956    0.05820000
opls_145-1    C    0.05493987    0.54904990    0.44431978    -0.08500000
opls_145-2    C    0.07861994    0.57431990    0.47609011    -0.13860000
opls_700-3    C    0.07834995    0.59143998    0.58733956    0.06290000
opls_145-4    C    0.05446992    0.58148995    0.67368022    -0.13490000
opls_145-5    C    0.03178994    0.55489999    0.64976044    -0.13480000
opls_700-6    C    0.10237990    0.61992995    0.60658022    0.06590000
opls_145-7    C    0.12961995    0.62527991    0.58503956    -0.13490000
opls_145-8    C    0.15195992    0.65242994    0.58590989    -0.14120000
opls_700-9    C    0.14757001    0.67487001    0.60907033    0.05050000
opls_145-10    C    0.12055995    0.66952005    0.63688022    -0.13480000
opls_145-11    C    0.09818001    0.64236003    0.63565055    -0.12020000
opls_142-12    C    0.17054994    0.70386989    0.59851978    0.07160000
opls_145-13    C    0.21918004    0.73666001    0.54565055    0.18090000
opls_145-14    C    0.24572001    0.74015991    0.56192967    -0.21520000
opls_700-15    C    0.26961009    0.76613006    0.54063956    0.08550000
opls_145-16    C    0.26670001    0.78890001    0.49416044    0.17670000
opls_145-17    C    0.24006995    0.78527003    0.47894945    -0.19500000
opls_145-18    C    0.21651993    0.75946993    0.50339011    -0.17230000
opls_142-19    C    0.31153006    0.82113006    0.38870000    0.07280000
opls_700-20    C    0.33525010    0.84960005    0.37433956    0.05980000
opls_145-21    C    0.36084008    0.85363005    0.32509011    -0.14070000
opls_145-22    C    0.38423000    0.88016007    0.32331978    -0.13040000
opls_700-23    C    0.38244002    0.90340997    0.36821978    0.06040000
opls_145-24    C    0.35627998    0.89936997    0.40949011    -0.14260000
opls_145-25    C    0.33333009    0.87276004    0.41412967    -0.14050000
opls_700-26    C    0.40799994    0.93117003    0.38297033    0.06070000
opls_145-27    C    0.43121997    0.93905999    0.29301978    -0.12150000
opls_145-28    C    0.45590002    0.96397992    0.31857033    -0.14200000
opls_700-29    C    0.45977993    0.97941998    0.44626044    0.06310000
opls_145-30    C    0.43532006    0.97369997    0.52215055    -0.14070000
opls_145-31    C    0.41000000    0.94985003    0.49217033    -0.13410000
opls_700-32    C    0.48881999    0.00243990    0.48568022    -0.00490000
opls_148-33    C    0.29717003    0.76855997    0.57531978    -0.45850000
opls_700-34    C    0.46132990    0.49170990    0.52813956    0.05820000
opls_145-35    C    0.45095002    0.50588995    0.44431978    -0.08500000
opls_145-36    C    0.42567995    0.50430005    0.47609011    -0.13860000
opls_700-37    C    0.40856010    0.48691003    0.58733956    0.06290000
opls_145-38    C    0.41850998    0.47297995    0.67368022    -0.13490000
opls_145-39    C    0.44510004    0.47689007    0.64976044    -0.13480000
opls_700-40    C    0.38007000    0.48245003    0.60658022    0.06590000
opls_145-41    C    0.37471993    0.50434001    0.58503956    -0.13490000
opls_145-42    C    0.34756994    0.49952994    0.58590989    -0.14120000
opls_700-43    C    0.32512993    0.47270001    0.60907033    0.05050000
opls_145-44    C    0.33047999    0.45104001    0.63688022    -0.13480000
opls_145-45    C    0.35763995    0.45581991    0.63565055    -0.12020000
opls_142-46    C    0.29613006    0.46668008    0.59851978    0.07160000
opls_145-47    C    0.26334001    0.48251996    0.54565055    0.18100000
opls_145-48    C    0.25984005    0.50556007    0.56192967    -0.21520000
opls_700-49    C    0.23386997    0.50348002    0.54063956    0.08530000
opls_145-50    C    0.21110008    0.47780001    0.49416044    0.17660000
opls_145-51    C    0.21473006    0.45480007    0.47894945    -0.19500000
opls_145-52    C    0.24053002    0.45704995    0.50339011    -0.17230000
opls_142-53    C    0.17886994    0.49039994    0.38870000    0.07280000
opls_700-54    C    0.15039999    0.48565002    0.37433956    0.05990000
opls_145-55    C    0.14636991    0.50720991    0.32509011    -0.14070000
opls_145-56    C    0.11984001    0.50407007    0.32331978    -0.13040000
opls_700-57    C    0.09659001    0.47903005    0.36821978    0.06040000
opls_145-58    C    0.10063006    0.45691009    0.40949011    -0.14260000
opls_145-59    C    0.12723996    0.46057004    0.41412967    -0.14050000
opls_700-60    C    0.06882988    0.47682992    0.38297033    0.06070000
opls_145-61    C    0.06093999    0.49216009    0.29301978    -0.12150000
opls_145-62    C    0.03601997    0.49191991    0.31857033    -0.14200000
opls_700-63    C    0.02057996    0.48036000    0.44626044    0.06310000
opls_145-64    C    0.02630011    0.46162005    0.52215055    -0.14070000
opls_145-65    C    0.05015000    0.46015003    0.49217033    -0.13420000
opls_700-66    C    0.99756001    0.48637992    0.48568022    -0.00490000
opls_148-67    C    0.23143998    0.52860995    0.57531978    -0.45840000
opls_700-68    C    0.50829000    0.96962001    0.52813956    0.05820000
opls_145-69    C    0.49411000    0.94505994    0.44431978    -0.08500000
opls_145-70    C    0.49569994    0.92138005    0.47609011    -0.13860000
opls_700-71    C    0.51308996    0.92164999    0.58733956    0.06290000
opls_145-72    C    0.52701999    0.94552990    0.67368022    -0.13480000
opls_145-73    C    0.52311002    0.96820994    0.64976044    -0.13470000
opls_700-74    C    0.51755010    0.89762002    0.60658022    0.06600000
opls_145-75    C    0.49566012    0.87038008    0.58503956    -0.13490000
opls_145-76    C    0.50047003    0.84803991    0.58590989    -0.14120000
opls_700-77    C    0.52730007    0.85242998    0.60907033    0.05050000
opls_145-78    C    0.54896006    0.87943994    0.63688022    -0.13470000
opls_145-79    C    0.54418004    0.90182007    0.63565055    -0.12020000
opls_142-80    C    0.53332000    0.82945002    0.59851978    0.07160000
opls_145-81    C    0.51747995    0.78082002    0.54565055    0.18090000
opls_145-82    C    0.49443994    0.75428002    0.56192967    -0.21520000
opls_700-83    C    0.49651994    0.73038992    0.54063956    0.08520000
opls_145-84    C    0.52219992    0.73329998    0.49416044    0.17670000
opls_145-85    C    0.54519999    0.75992989    0.47894945    -0.19500000
opls_145-86    C    0.54294994    0.78347992    0.50339011    -0.17230000
opls_142-87    C    0.50960000    0.68847000    0.38870000    0.07280000
opls_700-88    C    0.51434991    0.66474994    0.37433956    0.05980000
opls_145-89    C    0.49279001    0.63916004    0.32509011    -0.14070000
opls_145-90    C    0.49593010    0.61577007    0.32331978    -0.13020000
opls_700-91    C    0.52096997    0.61755998    0.36821978    0.06040000
opls_145-92    C    0.54308996    0.64371994    0.40949011    -0.14250000
opls_145-93    C    0.53942995    0.66666993    0.41412967    -0.14050000
opls_700-94    C    0.52317000    0.59200006    0.38297033    0.06070000
opls_145-95    C    0.50784003    0.56877992    0.29301978    -0.12150000
opls_145-96    C    0.50807990    0.54409997    0.31857033    -0.14200000
opls_700-97    C    0.51963993    0.54022002    0.44626044    0.06310000
opls_145-98    C    0.53838001    0.56467998    0.52215055    -0.14070000
opls_145-99    C    0.53985000    0.58999994    0.49217033    -0.13410000
opls_700-100    C    0.51361991    0.51117997    0.48568022    -0.00490000
opls_148-101    C    0.47138998    0.70283008    0.57531978    -0.45850000
opls_700-102    C    0.96961990    0.46132992    0.52813956    0.05820000
opls_145-103    C    0.94506002    0.45094989    0.44431978    -0.08500000
opls_145-104    C    0.92138006    0.42568010    0.47609011    -0.13860000
opls_700-105    C    0.92165005    0.40856002    0.58733956    0.06300000
opls_145-106    C    0.94553008    0.41851005    0.67368022    -0.13490000
opls_145-107    C    0.96821006    0.44510001    0.64976044    -0.13480000
opls_700-108    C    0.89762010    0.38007005    0.60658022    0.06590000
opls_145-109    C    0.87038005    0.37472009    0.58503956    -0.13480000
opls_145-110    C    0.84804008    0.34757006    0.58590989    -0.14120000
opls_700-111    C    0.85242999    0.32512999    0.60907033    0.05050000
opls_145-112    C    0.87944005    0.33047995    0.63688022    -0.13480000
opls_145-113    C    0.90181999    0.35763997    0.63565055    -0.12020000
opls_142-114    C    0.82944995    0.29612990    0.59851978    0.07160000
opls_145-115    C    0.78081996    0.26333999    0.54565055    0.18090000
opls_145-116    C    0.75427999    0.25984009    0.56192967    -0.21520000
opls_700-117    C    0.73038991    0.23386994    0.54063956    0.08540000
opls_145-118    C    0.73329999    0.21109999    0.49416044    0.17660000
opls_145-119    C    0.75993005    0.21472997    0.47894945    -0.19500000
opls_145-120    C    0.78348007    0.24053007    0.50339011    -0.17220000
opls_142-121    C    0.68846994    0.17886994    0.38870000    0.07280000
opls_700-122    C    0.66474990    0.15039995    0.37433956    0.05990000
opls_145-123    C    0.63915992    0.14636995    0.32509011    -0.14070000
opls_145-124    C    0.61577000    0.11983993    0.32331978    -0.13040000
opls_700-125    C    0.61755998    0.09659003    0.36821978    0.06040000
opls_145-126    C    0.64372002    0.10063003    0.40949011    -0.14260000
opls_145-127    C    0.66666991    0.12723996    0.41412967    -0.14050000
opls_700-128    C    0.59200006    0.06882997    0.38297033    0.06070000
opls_145-129    C    0.56878003    0.06094001    0.29301978    -0.12150000
opls_145-130    C    0.54409998    0.03602008    0.31857033    -0.14200000
opls_700-131    C    0.54022007    0.02058002    0.44626044    0.06310000
opls_145-132    C    0.56467994    0.02630003    0.52215055    -0.14070000
opls_145-133    C    0.59000000    0.05014997    0.49217033    -0.13420000
opls_700-134    C    0.51117991    0.99755989    0.48568022    -0.00490000
opls_148-135    C    0.70282997    0.23144003    0.57531978    -0.45850000
opls_700-136    C    0.53867010    0.50829010    0.52813956    0.05820000
opls_145-137    C    0.54904998    0.49411005    0.44431978    -0.08500000
opls_145-138    C    0.57432005    0.49569995    0.47609011    -0.13860000
opls_700-139    C    0.59143990    0.51308997    0.58733956    0.06290000
opls_145-140    C    0.58149002    0.52702005    0.67368022    -0.13490000
opls_145-141    C    0.55489996    0.52310993    0.64976044    -0.13480000
opls_700-142    C    0.61993000    0.51754997    0.60658022    0.06590000
opls_145-143    C    0.62528007    0.49565999    0.58503956    -0.13490000
opls_145-144    C    0.65243006    0.50047006    0.58590989    -0.14120000
opls_700-145    C    0.67487007    0.52729999    0.60907033    0.05050000
opls_145-146    C    0.66952001    0.54895999    0.63688022    -0.13480000
opls_145-147    C    0.64236005    0.54418009    0.63565055    -0.12020000
opls_142-148    C    0.70386994    0.53331992    0.59851978    0.07160000
opls_145-149    C    0.73665999    0.51748004    0.54565055    0.18090000
opls_145-150    C    0.74015995    0.49443993    0.56192967    -0.21510000
opls_700-151    C    0.76613003    0.49651998    0.54063956    0.08520000
opls_145-152    C    0.78889992    0.52219999    0.49416044    0.17660000
opls_145-153    C    0.78526994    0.54519993    0.47894945    -0.19500000
opls_145-154    C    0.75946998    0.54295005    0.50339011    -0.17230000
opls_142-155    C    0.82113006    0.50960006    0.38870000    0.07280000
opls_700-156    C    0.84960001    0.51434998    0.37433956    0.05980000
opls_145-157    C    0.85363009    0.49279009    0.32509011    -0.14070000
opls_145-158    C    0.88015999    0.49592993    0.32331978    -0.13030000
opls_700-159    C    0.90340999    0.52096995    0.36821978    0.06040000
opls_145-160    C    0.89936994    0.54308991    0.40949011    -0.14250000
opls_145-161    C    0.87276004    0.53942996    0.41412967    -0.14050000
opls_700-162    C    0.93117012    0.52317008    0.38297033    0.06070000
opls_145-163    C    0.93906001    0.50783991    0.29301978    -0.12150000
opls_145-164    C    0.96398003    0.50808009    0.31857033    -0.14200000
opls_700-165    C    0.97942004    0.51964000    0.44626044    0.06310000
opls_145-166    C    0.97369989    0.53837995    0.52215055    -0.14070000
opls_145-167    C    0.94985000    0.53984997    0.49217033    -0.13420000
opls_700-168    C    0.00243999    0.51362008    0.48568022    -0.00490000
opls_148-169    C    0.76856002    0.47139005    0.57531978    -0.45850000
opls_700-170    C    0.49171000    0.03037999    0.52813956    0.05820000
opls_145-171    C    0.50589000    0.05494006    0.44431978    -0.08500000
opls_145-172    C    0.50430006    0.07861995    0.47609011    -0.13860000
opls_700-173    C    0.48691004    0.07835001    0.58733956    0.06290000
opls_145-174    C    0.47297990    0.05446990    0.67368022    -0.13490000
opls_145-175    C    0.47688998    0.03179006    0.64976044    -0.13480000
opls_700-176    C    0.48244990    0.10237998    0.60658022    0.06590000
opls_145-177    C    0.50433988    0.12961992    0.58503956    -0.13490000
opls_145-178    C    0.49952997    0.15196009    0.58590989    -0.14120000
opls_700-179    C    0.47269993    0.14757002    0.60907033    0.05050000
opls_145-180    C    0.45103994    0.12056006    0.63688022    -0.13480000
opls_145-181    C    0.45581996    0.09817993    0.63565055    -0.12020000
opls_142-182    C    0.46668000    0.17054998    0.59851978    0.07160000
opls_145-183    C    0.48252005    0.21917998    0.54565055    0.18090000
opls_145-184    C    0.50556006    0.24571998    0.56192967    -0.21520000
opls_700-185    C    0.50348006    0.26961008    0.54063956    0.08530000
opls_145-186    C    0.47780008    0.26670002    0.49416044    0.17660000
opls_145-187    C    0.45479991    0.24006990    0.47894945    -0.19500000
opls_145-188    C    0.45705006    0.21652008    0.50339011    -0.17230000
opls_142-189    C    0.49040000    0.31153000    0.38870000    0.07280000
opls_700-190    C    0.48565009    0.33525006    0.37433956    0.05980000
opls_145-191    C    0.50720999    0.36083996    0.32509011    -0.14070000
opls_145-192    C    0.50406990    0.38422993    0.32331978    -0.13030000
opls_700-193    C    0.47903003    0.38244002    0.36821978    0.06040000
opls_145-194    C    0.45691004    0.35628006    0.40949011    -0.14260000
opls_145-195    C    0.46057005    0.33333007    0.41412967    -0.14050000
opls_700-196    C    0.47683000    0.40799994    0.38297033    0.06070000
opls_145-197    C    0.49215997    0.43122008    0.29301978    -0.12150000
opls_145-198    C    0.49192010    0.45590003    0.31857033    -0.14200000
opls_700-199    C    0.48036007    0.45977998    0.44626044    0.06310000
opls_145-200    C    0.46161999    0.43532002    0.52215055    -0.14070000
opls_145-201    C    0.46015000    0.41000006    0.49217033    -0.13410000
opls_700-202    C    0.48638009    0.48882003    0.48568022    -0.00490000
opls_148-203    C    0.52861002    0.29716992    0.57531978    -0.45840000
opls_700-204    C    0.03038010    0.53867008    0.02813956    0.05820000
opls_145-205    C    0.05493987    0.54904990    0.94431978    -0.08500000
opls_145-206    C    0.07861994    0.57431990    0.97609011    -0.13860000
opls_700-207    C    0.07834995    0.59143998    0.08733956    0.06290000
opls_145-208    C    0.05446992    0.58148995    0.17368022    -0.13490000
opls_145-209    C    0.03178994    0.55489999    0.14976044    -0.13480000
opls_700-210    C    0.10237990    0.61992995    0.10658022    0.06590000
opls_145-211    C    0.12961995    0.62527991    0.08503956    -0.13490000
opls_145-212    C    0.15195992    0.65242994    0.08590989    -0.14120000
opls_700-213    C    0.14757001    0.67487001    0.10907033    0.05050000
opls_145-214    C    0.12055995    0.66952005    0.13688022    -0.13480000
opls_145-215    C    0.09818001    0.64236003    0.13565055    -0.12010000
opls_142-216    C    0.17054994    0.70386989    0.09851978    0.07160000
opls_145-217    C    0.21918004    0.73666001    0.04564945    0.18090000
opls_145-218    C    0.24572001    0.74015991    0.06192967    -0.21520000
opls_700-219    C    0.26961009    0.76613006    0.04063956    0.08540000
opls_145-220    C    0.26670001    0.78890001    0.99416044    0.17660000
opls_145-221    C    0.24006995    0.78527003    0.97895055    -0.19500000
opls_145-222    C    0.21651993    0.75946993    0.00339011    -0.17230000
opls_142-223    C    0.31153006    0.82113006    0.88870000    0.07280000
opls_700-224    C    0.33525010    0.84960005    0.87433956    0.05990000
opls_145-225    C    0.36084008    0.85363005    0.82509011    -0.14070000
opls_145-226    C    0.38423000    0.88016007    0.82331978    -0.13040000
opls_700-227    C    0.38244002    0.90340997    0.86821978    0.06040000
opls_145-228    C    0.35627998    0.89936997    0.90949011    -0.14260000
opls_145-229    C    0.33333009    0.87276004    0.91412967    -0.14050000
opls_700-230    C    0.40799994    0.93117003    0.88297033    0.06070000
opls_145-231    C    0.43121997    0.93905999    0.79301978    -0.12150000
opls_145-232    C    0.45590002    0.96397992    0.81857033    -0.14200000
opls_700-233    C    0.45977993    0.97941998    0.94626044    0.06310000
opls_145-234    C    0.43532006    0.97369997    0.02214945    -0.14070000
opls_145-235    C    0.41000000    0.94985003    0.99217033    -0.13420000
opls_700-236    C    0.48881999    0.00243990    0.98568022    -0.00490000
opls_148-237    C    0.29717003    0.76855997    0.07531978    -0.45850000
opls_700-238    C    0.46132990    0.49170990    0.02813956    0.05830000
opls_145-239    C    0.45095002    0.50588995    0.94431978    -0.08500000
opls_145-240    C    0.42567995    0.50430005    0.97609011    -0.13850000
opls_700-241    C    0.40856010    0.48691003    0.08733956    0.06300000
opls_145-242    C    0.41850998    0.47297995    0.17368022    -0.13490000
opls_145-243    C    0.44510004    0.47689007    0.14976044    -0.13480000
opls_700-244    C    0.38007000    0.48245003    0.10658022    0.06590000
opls_145-245    C    0.37471993    0.50434001    0.08503956    -0.13490000
opls_145-246    C    0.34756994    0.49952994    0.08590989    -0.14120000
opls_700-247    C    0.32512993    0.47270001    0.10907033    0.05050000
opls_145-248    C    0.33047999    0.45104001    0.13688022    -0.13480000
opls_145-249    C    0.35763995    0.45581991    0.13565055    -0.12020000
opls_142-250    C    0.29613006    0.46668008    0.09851978    0.07160000
opls_145-251    C    0.26334001    0.48251996    0.04564945    0.18090000
opls_145-252    C    0.25984005    0.50556007    0.06192967    -0.21520000
opls_700-253    C    0.23386997    0.50348002    0.04063956    0.08520000
opls_145-254    C    0.21110008    0.47780001    0.99416044    0.17660000
opls_145-255    C    0.21473006    0.45480007    0.97895055    -0.19500000
opls_145-256    C    0.24053002    0.45704995    0.00339011    -0.17230000
opls_142-257    C    0.17886994    0.49039994    0.88870000    0.07280000
opls_700-258    C    0.15039999    0.48565002    0.87433956    0.05980000
opls_145-259    C    0.14636991    0.50720991    0.82509011    -0.14070000
opls_145-260    C    0.11984001    0.50407007    0.82331978    -0.13040000
opls_700-261    C    0.09659001    0.47903005    0.86821978    0.06040000
opls_145-262    C    0.10063006    0.45691009    0.90949011    -0.14260000
opls_145-263    C    0.12723996    0.46057004    0.91412967    -0.14050000
opls_700-264    C    0.06882988    0.47682992    0.88297033    0.06070000
opls_145-265    C    0.06093999    0.49216009    0.79301978    -0.12150000
opls_145-266    C    0.03601997    0.49191991    0.81857033    -0.14200000
opls_700-267    C    0.02057996    0.48036000    0.94626044    0.06310000
opls_145-268    C    0.02630011    0.46162005    0.02214945    -0.14070000
opls_145-269    C    0.05015000    0.46015003    0.99217033    -0.13420000
opls_700-270    C    0.99756001    0.48637992    0.98568022    -0.00490000
opls_148-271    C    0.23143998    0.52860995    0.07531978    -0.45840000
opls_700-272    C    0.50829000    0.96962001    0.02813956    0.05820000
opls_145-273    C    0.49411000    0.94505994    0.94431978    -0.08500000
opls_145-274    C    0.49569994    0.92138005    0.97609011    -0.13860000
opls_700-275    C    0.51308996    0.92164999    0.08733956    0.06300000
opls_145-276    C    0.52701999    0.94552990    0.17368022    -0.13490000
opls_145-277    C    0.52311002    0.96820994    0.14976044    -0.13480000
opls_700-278    C    0.51755010    0.89762002    0.10658022    0.06590000
opls_145-279    C    0.49566012    0.87038008    0.08503956    -0.13480000
opls_145-280    C    0.50047003    0.84803991    0.08590989    -0.14120000
opls_700-281    C    0.52730007    0.85242998    0.10907033    0.05050000
opls_145-282    C    0.54896006    0.87943994    0.13688022    -0.13480000
opls_145-283    C    0.54418004    0.90182007    0.13565055    -0.12020000
opls_142-284    C    0.53332000    0.82945002    0.09851978    0.07160000
opls_145-285    C    0.51747995    0.78082002    0.04564945    0.18090000
opls_145-286    C    0.49443994    0.75428002    0.06192967    -0.21520000
opls_700-287    C    0.49651994    0.73038992    0.04063956    0.08520000
opls_145-288    C    0.52219992    0.73329998    0.99416044    0.17660000
opls_145-289    C    0.54519999    0.75992989    0.97895055    -0.19490000
opls_145-290    C    0.54294994    0.78347992    0.00339011    -0.17230000
opls_142-291    C    0.50960000    0.68847000    0.88870000    0.07280000
opls_700-292    C    0.51434991    0.66474994    0.87433956    0.05980000
opls_145-293    C    0.49279001    0.63916004    0.82509011    -0.14070000
opls_145-294    C    0.49593010    0.61577007    0.82331978    -0.13040000
opls_700-295    C    0.52096997    0.61755998    0.86821978    0.06040000
opls_145-296    C    0.54308996    0.64371994    0.90949011    -0.14260000
opls_145-297    C    0.53942995    0.66666993    0.91412967    -0.14050000
opls_700-298    C    0.52317000    0.59200006    0.88297033    0.06070000
opls_145-299    C    0.50784003    0.56877992    0.79301978    -0.12150000
opls_145-300    C    0.50807990    0.54409997    0.81857033    -0.14200000
opls_700-301    C    0.51963993    0.54022002    0.94626044    0.06310000
opls_145-302    C    0.53838001    0.56467998    0.02214945    -0.14070000
opls_145-303    C    0.53985000    0.58999994    0.99217033    -0.13420000
opls_700-304    C    0.51361991    0.51117997    0.98568022    -0.00490000
opls_148-305    C    0.47138998    0.70283008    0.07531978    -0.45850000
opls_700-306    C    0.96961990    0.46132992    0.02813956    0.05820000
opls_145-307    C    0.94506002    0.45094989    0.94431978    -0.08500000
opls_145-308    C    0.92138006    0.42568010    0.97609011    -0.13860000
opls_700-309    C    0.92165005    0.40856002    0.08733956    0.06290000
opls_145-310    C    0.94553008    0.41851005    0.17368022    -0.13490000
opls_145-311    C    0.96821006    0.44510001    0.14976044    -0.13480000
opls_700-312    C    0.89762010    0.38007005    0.10658022    0.06590000
opls_145-313    C    0.87038005    0.37472009    0.08503956    -0.13490000
opls_145-314    C    0.84804008    0.34757006    0.08590989    -0.14100000
opls_700-315    C    0.85242999    0.32512999    0.10907033    0.05050000
opls_145-316    C    0.87944005    0.33047995    0.13688022    -0.13480000
opls_145-317    C    0.90181999    0.35763997    0.13565055    -0.12020000
opls_142-318    C    0.82944995    0.29612990    0.09851978    0.07160000
opls_145-319    C    0.78081996    0.26333999    0.04564945    0.18090000
opls_145-320    C    0.75427999    0.25984009    0.06192967    -0.21510000
opls_700-321    C    0.73038991    0.23386994    0.04063956    0.08540000
opls_145-322    C    0.73329999    0.21109999    0.99416044    0.17660000
opls_145-323    C    0.75993005    0.21472997    0.97895055    -0.19500000
opls_145-324    C    0.78348007    0.24053007    0.00339011    -0.17230000
opls_142-325    C    0.68846994    0.17886994    0.88870000    0.07280000
opls_700-326    C    0.66474990    0.15039995    0.87433956    0.05980000
opls_145-327    C    0.63915992    0.14636995    0.82509011    -0.14070000
opls_145-328    C    0.61577000    0.11983993    0.82331978    -0.13040000
opls_700-329    C    0.61755998    0.09659003    0.86821978    0.06040000
opls_145-330    C    0.64372002    0.10063003    0.90949011    -0.14260000
opls_145-331    C    0.66666991    0.12723996    0.91412967    -0.14030000
opls_700-332    C    0.59200006    0.06882997    0.88297033    0.06080000
opls_145-333    C    0.56878003    0.06094001    0.79301978    -0.12150000
opls_145-334    C    0.54409998    0.03602008    0.81857033    -0.14200000
opls_700-335    C    0.54022007    0.02058002    0.94626044    0.06310000
opls_145-336    C    0.56467994    0.02630003    0.02214945    -0.14070000
opls_145-337    C    0.59000000    0.05014997    0.99217033    -0.13420000
opls_700-338    C    0.51117991    0.99755989    0.98568022    -0.00490000
opls_148-339    C    0.70282997    0.23144003    0.07531978    -0.45850000
opls_700-340    C    0.53867010    0.50829010    0.02813956    0.05820000
opls_145-341    C    0.54904998    0.49411005    0.94431978    -0.08500000
opls_145-342    C    0.57432005    0.49569995    0.97609011    -0.13860000
opls_700-343    C    0.59143990    0.51308997    0.08733956    0.06290000
opls_145-344    C    0.58149002    0.52702005    0.17368022    -0.13490000
opls_145-345    C    0.55489996    0.52310993    0.14976044    -0.13470000
opls_700-346    C    0.61993000    0.51754997    0.10658022    0.06590000
opls_145-347    C    0.62528007    0.49565999    0.08503956    -0.13490000
opls_145-348    C    0.65243006    0.50047006    0.08590989    -0.14120000
opls_700-349    C    0.67487007    0.52729999    0.10907033    0.05050000
opls_145-350    C    0.66952001    0.54895999    0.13688022    -0.13470000
opls_145-351    C    0.64236005    0.54418009    0.13565055    -0.12020000
opls_142-352    C    0.70386994    0.53331992    0.09851978    0.07160000
opls_145-353    C    0.73665999    0.51748004    0.04564945    0.18100000
opls_145-354    C    0.74015995    0.49443993    0.06192967    -0.21510000
opls_700-355    C    0.76613003    0.49651998    0.04063956    0.08520000
opls_145-356    C    0.78889992    0.52219999    0.99416044    0.17660000
opls_145-357    C    0.78526994    0.54519993    0.97895055    -0.19500000
opls_145-358    C    0.75946998    0.54295005    0.00339011    -0.17230000
opls_142-359    C    0.82113006    0.50960006    0.88870000    0.07280000
opls_700-360    C    0.84960001    0.51434998    0.87433956    0.05980000
opls_145-361    C    0.85363009    0.49279009    0.82509011    -0.14070000
opls_145-362    C    0.88015999    0.49592993    0.82331978    -0.13040000
opls_700-363    C    0.90340999    0.52096995    0.86821978    0.06040000
opls_145-364    C    0.89936994    0.54308991    0.90949011    -0.14260000
opls_145-365    C    0.87276004    0.53942996    0.91412967    -0.14050000
opls_700-366    C    0.93117012    0.52317008    0.88297033    0.06070000
opls_145-367    C    0.93906001    0.50783991    0.79301978    -0.12150000
opls_145-368    C    0.96398003    0.50808009    0.81857033    -0.14200000
opls_700-369    C    0.97942004    0.51964000    0.94626044    0.06310000
opls_145-370    C    0.97369989    0.53837995    0.02214945    -0.14070000
opls_145-371    C    0.94985000    0.53984997    0.99217033    -0.13420000
opls_700-372    C    0.00243999    0.51362008    0.98568022    -0.00490000
opls_148-373    C    0.76856002    0.47139005    0.07531978    -0.45850000
opls_700-374    C    0.49171000    0.03037999    0.02813956    0.05820000
opls_145-375    C    0.50589000    0.05494006    0.94431978    -0.08500000
opls_145-376    C    0.50430006    0.07861995    0.97609011    -0.13860000
opls_700-377    C    0.48691004    0.07835001    0.08733956    0.06290000
opls_145-378    C    0.47297990    0.05446990    0.17368022    -0.13490000
opls_145-379    C    0.47688998    0.03179006    0.14976044    -0.13480000
opls_700-380    C    0.48244990    0.10237998    0.10658022    0.06590000
opls_145-381    C    0.50433988    0.12961992    0.08503956    -0.13490000
opls_145-382    C    0.49952997    0.15196009    0.08590989    -0.14120000
opls_700-383    C    0.47269993    0.14757002    0.10907033    0.05050000
opls_145-384    C    0.45103994    0.12056006    0.13688022    -0.13480000
opls_145-385    C    0.45581996    0.09817993    0.13565055    -0.12020000
opls_142-386    C    0.46668000    0.17054998    0.09851978    0.07160000
opls_145-387    C    0.48252005    0.21917998    0.04564945    0.18090000
opls_145-388    C    0.50556006    0.24571998    0.06192967    -0.21520000
opls_700-389    C    0.50348006    0.26961008    0.04063956    0.08520000
opls_145-390    C    0.47780008    0.26670002    0.99416044    0.17660000
opls_145-391    C    0.45479991    0.24006990    0.97895055    -0.19500000
opls_145-392    C    0.45705006    0.21652008    0.00339011    -0.17230000
opls_142-393    C    0.49040000    0.31153000    0.88870000    0.07280000
opls_700-394    C    0.48565009    0.33525006    0.87433956    0.05990000
opls_145-395    C    0.50720999    0.36083996    0.82509011    -0.14060000
opls_145-396    C    0.50406990    0.38422993    0.82331978    -0.13040000
opls_700-397    C    0.47903003    0.38244002    0.86821978    0.06040000
opls_145-398    C    0.45691004    0.35628006    0.90949011    -0.14260000
opls_145-399    C    0.46057005    0.33333007    0.91412967    -0.14050000
opls_700-400    C    0.47683000    0.40799994    0.88297033    0.06080000
opls_145-401    C    0.49215997    0.43122008    0.79301978    -0.12150000
opls_145-402    C    0.49192010    0.45590003    0.81857033    -0.14200000
opls_700-403    C    0.48036007    0.45977998    0.94626044    0.06310000
opls_145-404    C    0.46161999    0.43532002    0.02214945    -0.14070000
opls_145-405    C    0.46015000    0.41000006    0.99217033    -0.13420000
opls_700-406    C    0.48638009    0.48882003    0.98568022    -0.00490000
opls_148-407    C    0.52861002    0.29716992    0.07531978    -0.45850000
opls_750-408    N    0.19560997    0.70946003    0.56747033    -0.37610000
opls_750-409    N    0.28988000    0.81607003    0.46598022    -0.37600000
opls_750-410    N    0.29054000    0.48614994    0.56747033    -0.37600000
opls_750-411    N    0.18393004    0.47380996    0.46598022    -0.37610000
opls_750-412    N    0.51385002    0.80439003    0.56747033    -0.37610000
opls_750-413    N    0.52618996    0.71012001    0.46598022    -0.37610000
opls_750-414    N    0.80439003    0.29053997    0.56747033    -0.37580000
opls_750-415    N    0.71012000    0.18392997    0.46598022    -0.37600000
opls_750-416    N    0.70946000    0.51385006    0.56747033    -0.37600000
opls_750-417    N    0.81606996    0.52619004    0.46598022    -0.37610000
opls_750-418    N    0.48614998    0.19560997    0.56747033    -0.37610000
opls_750-419    N    0.47381004    0.28987999    0.46598022    -0.37610000
opls_750-420    N    0.19560997    0.70946003    0.06747033    -0.37610000
opls_750-421    N    0.28988000    0.81607003    0.96598022    -0.37610000
opls_750-422    N    0.29054000    0.48614994    0.06747033    -0.37610000
opls_750-423    N    0.18393004    0.47380996    0.96598022    -0.37600000
opls_750-424    N    0.51385002    0.80439003    0.06747033    -0.37600000
opls_750-425    N    0.52618996    0.71012001    0.96598022    -0.37600000
opls_750-426    N    0.80439003    0.29053997    0.06747033    -0.37610000
opls_750-427    N    0.71012000    0.18392997    0.96598022    -0.37590000
opls_750-428    N    0.70946000    0.51385006    0.06747033    -0.37610000
opls_750-429    N    0.81606996    0.52619004    0.96598022    -0.37610000
opls_750-430    N    0.48614998    0.19560997    0.06747033    -0.37610000
opls_750-431    N    0.47381004    0.28987999    0.96598022    -0.37610000
opls_146-432    H    0.05636009    0.54024000    0.34408022    0.22780000
opls_146-433    H    0.09634998    0.58156009    0.40372967    0.10770000
opls_146-434    H    0.05372007    0.59370006    0.76427033    0.11210000
opls_146-435    H    0.01539998    0.54706997    0.72917033    0.22860000
opls_146-436    H    0.13365000    0.60844996    0.56517033    0.11560000
opls_146-437    H    0.17258002    0.65583993    0.56546044    0.10590000
opls_146-438    H    0.11664997    0.68647009    0.65548022    0.10860000
opls_146-439    H    0.07747996    0.63903995    0.65137033    0.09230000
opls_144-440    H    0.16600002    0.72040991    0.61598022    0.09270000
opls_146-441    H    0.24773007    0.72257009    0.59526044    0.11290000
opls_146-442    H    0.23756996    0.80252998    0.44514945    0.11050000
opls_146-443    H    0.19639002    0.75740008    0.48564945    0.09490000
opls_144-444    H    0.31292993    0.80421999    0.33913956    0.09280000
opls_146-445    H    0.36300008    0.83606000    0.29331978    0.11430000
opls_146-446    H    0.40390997    0.88216997    0.29252967    0.11270000
opls_146-447    H    0.35369012    0.91667008    0.44027033    0.09500000
opls_146-448    H    0.31343989    0.87031993    0.45027033    0.08710000
opls_146-449    H    0.43028995    0.92638992    0.20062967    0.10960000
opls_146-450    H    0.47275009    0.97064005    0.24144945    0.08530000
opls_146-451    H    0.43479003    0.98586990    0.61126044    0.08090000
opls_146-452    H    0.39261993    0.94524996    0.56294945    0.11050000
opls_702-453    H    0.30314006    0.75918999    0.48504945    0.15910000
opls_702-454    H    0.29566003    0.75737990    0.67910989    0.15810000
opls_702-455    H    0.31379988    0.79026992    0.59226044    0.12160000
opls_146-456    H    0.45976003    0.51611991    0.34408022    0.22800000
opls_146-457    H    0.41844005    0.51478997    0.40372967    0.10760000
opls_146-458    H    0.40629999    0.46001995    0.76427033    0.11220000
opls_146-459    H    0.45292992    0.46832992    0.72917033    0.22860000
opls_146-460    H    0.39155005    0.52519997    0.56517033    0.11560000
opls_146-461    H    0.34415998    0.51673993    0.56546044    0.10580000
opls_146-462    H    0.31353001    0.43018006    0.65548022    0.10860000
opls_146-463    H    0.36096013    0.43844008    0.65137033    0.10750000
opls_144-464    H    0.27959003    0.44558994    0.61598022    0.09270000
opls_146-465    H    0.27743004    0.52516000    0.59526044    0.11290000
opls_146-466    H    0.19747011    0.43504008    0.44514945    0.11060000
opls_146-467    H    0.24260006    0.43898996    0.48564945    0.09490000
opls_144-468    H    0.19577996    0.50870989    0.33913956    0.09270000
opls_146-469    H    0.16394004    0.52693992    0.29331978    0.11430000
opls_146-470    H    0.11783000    0.52174003    0.29252967    0.11270000
opls_146-471    H    0.08332994    0.43702002    0.44027033    0.09490000
opls_146-472    H    0.12968008    0.44312007    0.45027033    0.08710000
opls_146-473    H    0.07361007    0.50390003    0.20062967    0.10960000
opls_146-474    H    0.02935993    0.50210991    0.24144945    0.08530000
opls_146-475    H    0.01412997    0.44892001    0.61126044    0.08090000
opls_146-476    H    0.05475010    0.44737007    0.56294945    0.11050000
opls_702-477    H    0.24081003    0.54394990    0.48504945    0.15920000
opls_702-478    H    0.24262002    0.53828005    0.67910989    0.15810000
opls_702-479    H    0.20973000    0.52352994    0.59226044    0.12160000
opls_146-480    H    0.48388006    0.94364008    0.34408022    0.22790000
opls_146-481    H    0.48520997    0.90364994    0.40372967    0.10760000
opls_146-482    H    0.53997994    0.94627999    0.76427033    0.11210000
opls_146-483    H    0.53166999    0.98459990    0.72917033    0.22860000
opls_146-484    H    0.47480013    0.86635007    0.56517033    0.11560000
opls_146-485    H    0.48325989    0.82741993    0.56546044    0.10580000
opls_146-486    H    0.56981995    0.88335006    0.65548022    0.10860000
opls_146-487    H    0.56155991    0.92251997    0.65137033    0.10750000
opls_144-488    H    0.55441003    0.83399994    0.61598022    0.09270000
opls_146-489    H    0.47483989    0.75226991    0.59526044    0.11290000
opls_146-490    H    0.56495992    0.76242994    0.44514945    0.11050000
opls_146-491    H    0.56100992    0.80360996    0.48564945    0.09490000
opls_144-492    H    0.49129000    0.68706991    0.33913956    0.09270000
opls_146-493    H    0.47306006    0.63700008    0.29331978    0.11440000
opls_146-494    H    0.47826003    0.59609000    0.29252967    0.11270000
opls_146-495    H    0.56297993    0.64630990    0.44027033    0.09490000
opls_146-496    H    0.55688003    0.68656000    0.45027033    0.08710000
opls_146-497    H    0.49609998    0.56971005    0.20062967    0.10760000
opls_146-498    H    0.49788998    0.52725004    0.24144945    0.08530000
opls_146-499    H    0.55107999    0.56521009    0.61126044    0.08090000
opls_146-500    H    0.55262996    0.60737997    0.56294945    0.11050000
opls_702-501    H    0.45604999    0.69685989    0.48504945    0.15910000
opls_702-502    H    0.46171996    0.70434005    0.67910989    0.15810000
opls_702-503    H    0.47647001    0.68619993    0.59226044    0.12160000
opls_146-504    H    0.94363991    0.45976000    0.34408022    0.22780000
opls_146-505    H    0.90365002    0.41843991    0.40372967    0.10760000
opls_146-506    H    0.94627993    0.40629994    0.76427033    0.11210000
opls_146-507    H    0.98460002    0.45293003    0.72917033    0.22860000
opls_146-508    H    0.86635000    0.39155004    0.56517033    0.11560000
opls_146-509    H    0.82741998    0.34416007    0.56546044    0.10580000
opls_146-510    H    0.88335003    0.31352991    0.65548022    0.10860000
opls_146-511    H    0.92252004    0.36096005    0.65137033    0.09230000
opls_144-512    H    0.83399998    0.27959009    0.61598022    0.09280000
opls_146-513    H    0.75226993    0.27742991    0.59526044    0.11290000
opls_146-514    H    0.76243004    0.19747002    0.44514945    0.11050000
opls_146-515    H    0.80360998    0.24259992    0.48564945    0.09490000
opls_144-516    H    0.68707007    0.19578001    0.33913956    0.09270000
opls_146-517    H    0.63699992    0.16394000    0.29331978    0.11430000
opls_146-518    H    0.59609003    0.11783003    0.29252967    0.11270000
opls_146-519    H    0.64630988    0.08332992    0.44027033    0.09490000
opls_146-520    H    0.68656011    0.12968007    0.45027033    0.08710000
opls_146-521    H    0.56971005    0.07361008    0.20062967    0.10960000
opls_146-522    H    0.52724991    0.02935995    0.24144945    0.08530000
opls_146-523    H    0.56520997    0.01413010    0.61126044    0.08090000
opls_146-524    H    0.60738007    0.05475004    0.56294945    0.11050000
opls_702-525    H    0.69685994    0.24081001    0.48504945    0.15910000
opls_702-526    H    0.70433987    0.24261990    0.67910989    0.15810000
opls_702-527    H    0.68620012    0.20973008    0.59226044    0.12160000
opls_146-528    H    0.54023997    0.48388009    0.34408022    0.22780000
opls_146-529    H    0.58155995    0.48521003    0.40372967    0.10760000
opls_146-530    H    0.59370001    0.53998005    0.76427033    0.11210000
opls_146-531    H    0.54707008    0.53167008    0.72917033    0.22860000
opls_146-532    H    0.60844995    0.47480003    0.56517033    0.11560000
opls_146-533    H    0.65584002    0.48326007    0.56546044    0.10580000
opls_146-534    H    0.68646999    0.56981994    0.65548022    0.10860000
opls_146-535    H    0.63903987    0.56155992    0.65137033    0.10750000
opls_144-536    H    0.72040997    0.55441006    0.61598022    0.09270000
opls_146-537    H    0.72256996    0.47484000    0.59526044    0.11290000
opls_146-538    H    0.80252989    0.56495992    0.44514945    0.11050000
opls_146-539    H    0.75739994    0.56101004    0.48564945    0.09490000
opls_144-540    H    0.80421993    0.49128990    0.33913956    0.09280000
opls_146-541    H    0.83605996    0.47306008    0.29331978    0.11430000
opls_146-542    H    0.88217000    0.47825997    0.29252967    0.11270000
opls_146-543    H    0.91667006    0.56297998    0.44027033    0.09500000
opls_146-544    H    0.87031992    0.55687993    0.45027033    0.08710000
opls_146-545    H    0.92638993    0.49609997    0.20062967    0.10960000
opls_146-546    H    0.97064007    0.49789009    0.24144945    0.08540000
opls_146-547    H    0.98587003    0.55107999    0.61126044    0.08090000
opls_146-548    H    0.94524990    0.55262993    0.56294945    0.11050000
opls_702-549    H    0.75918997    0.45605010    0.48504945    0.15910000
opls_702-550    H    0.75737998    0.46171995    0.67910989    0.15810000
opls_702-551    H    0.79027000    0.47647006    0.59226044    0.12160000
opls_146-552    H    0.51611994    0.05635992    0.34408022    0.22780000
opls_146-553    H    0.51479003    0.09635006    0.40372967    0.10760000
opls_146-554    H    0.46002006    0.05372001    0.76427033    0.11220000
opls_146-555    H    0.46833001    0.01540010    0.72917033    0.22860000
opls_146-556    H    0.52519987    0.13364993    0.56517033    0.11560000
opls_146-557    H    0.51674011    0.17258007    0.56546044    0.10580000
opls_146-558    H    0.43018005    0.11664994    0.65548022    0.10860000
opls_146-559    H    0.43844009    0.07748003    0.65137033    0.10760000
opls_144-560    H    0.44558997    0.16600006    0.61598022    0.09270000
opls_146-561    H    0.52516011    0.24773009    0.59526044    0.11290000
opls_146-562    H    0.43504008    0.23757006    0.44514945    0.11050000
opls_146-563    H    0.43899008    0.19639004    0.48564945    0.09490000
opls_144-564    H    0.50871000    0.31293009    0.33913956    0.09270000
opls_146-565    H    0.52693994    0.36299992    0.29331978    0.11430000
opls_146-566    H    0.52173997    0.40391000    0.29252967    0.11270000
opls_146-567    H    0.43702007    0.35369010    0.44027033    0.09490000
opls_146-568    H    0.44311997    0.31344000    0.45027033    0.08710000
opls_146-569    H    0.50390002    0.43028995    0.20062967    0.10760000
opls_146-570    H    0.50211002    0.47274996    0.24144945    0.08530000
opls_146-571    H    0.44892001    0.43478991    0.61126044    0.08090000
opls_146-572    H    0.44737004    0.39262003    0.56294945    0.11050000
opls_702-573    H    0.54394991    0.30313990    0.48504945    0.15910000
opls_702-574    H    0.53828004    0.29565995    0.67910989    0.15810000
opls_702-575    H    0.52352999    0.31380007    0.59226044    0.12160000
opls_146-576    H    0.05636009    0.54024000    0.84408022    0.22780000
opls_146-577    H    0.09634998    0.58156009    0.90372967    0.10770000
opls_146-578    H    0.05372007    0.59370006    0.26427033    0.11210000
opls_146-579    H    0.01539998    0.54706997    0.22917033    0.22860000
opls_146-580    H    0.13365000    0.60844996    0.06517033    0.11560000
opls_146-581    H    0.17258002    0.65583993    0.06546044    0.10580000
opls_146-582    H    0.11664997    0.68647009    0.15548022    0.10860000
opls_146-583    H    0.07747996    0.63903995    0.15137033    0.09230000
opls_144-584    H    0.16600002    0.72040991    0.11598022    0.09270000
opls_146-585    H    0.24773007    0.72257009    0.09526044    0.11290000
opls_146-586    H    0.23756996    0.80252998    0.94515055    0.11060000
opls_146-587    H    0.19639002    0.75740008    0.98564945    0.09490000
opls_144-588    H    0.31292993    0.80421999    0.83913956    0.09270000
opls_146-589    H    0.36300008    0.83606000    0.79331978    0.11430000
opls_146-590    H    0.40390997    0.88216997    0.79252967    0.11270000
opls_146-591    H    0.35369012    0.91667008    0.94027033    0.09500000
opls_146-592    H    0.31343989    0.87031993    0.95027033    0.08710000
opls_146-593    H    0.43028995    0.92638992    0.70062967    0.10960000
opls_146-594    H    0.47275009    0.97064005    0.74144945    0.08530000
opls_146-595    H    0.43479003    0.98586990    0.11126044    0.08090000
opls_146-596    H    0.39261993    0.94524996    0.06295055    0.11050000
opls_702-597    H    0.30314006    0.75918999    0.98505055    0.15910000
opls_702-598    H    0.29566003    0.75737990    0.17910989    0.15810000
opls_702-599    H    0.31379988    0.79026992    0.09226044    0.12160000
opls_146-600    H    0.45976003    0.51611991    0.84408022    0.22780000
opls_146-601    H    0.41844005    0.51478997    0.90372967    0.10760000
opls_146-602    H    0.40629999    0.46001995    0.26427033    0.11210000
opls_146-603    H    0.45292992    0.46832992    0.22917033    0.22860000
opls_146-604    H    0.39155005    0.52519997    0.06517033    0.11560000
opls_146-605    H    0.34415998    0.51673993    0.06546044    0.10580000
opls_146-606    H    0.31353001    0.43018006    0.15548022    0.10860000
opls_146-607    H    0.36096013    0.43844008    0.15137033    0.10750000
opls_144-608    H    0.27959003    0.44558994    0.11598022    0.09270000
opls_146-609    H    0.27743004    0.52516000    0.09526044    0.11290000
opls_146-610    H    0.19747011    0.43504008    0.94515055    0.11050000
opls_146-611    H    0.24260006    0.43898996    0.98564945    0.09490000
opls_144-612    H    0.19577996    0.50870989    0.83913956    0.09270000
opls_146-613    H    0.16394004    0.52693992    0.79331978    0.11430000
opls_146-614    H    0.11783000    0.52174003    0.79252967    0.11270000
opls_146-615    H    0.08332994    0.43702002    0.94027033    0.09490000
opls_146-616    H    0.12968008    0.44312007    0.95027033    0.08720000
opls_146-617    H    0.07361007    0.50390003    0.70062967    0.10960000
opls_146-618    H    0.02935993    0.50210991    0.74144945    0.08530000
opls_146-619    H    0.01412997    0.44892001    0.11126044    0.08090000
opls_146-620    H    0.05475010    0.44737007    0.06295055    0.11050000
opls_702-621    H    0.24081003    0.54394990    0.98505055    0.15910000
opls_702-622    H    0.24262002    0.53828005    0.17910989    0.15810000
opls_702-623    H    0.20973000    0.52352994    0.09226044    0.12160000
opls_146-624    H    0.48388006    0.94364008    0.84408022    0.22780000
opls_146-625    H    0.48520997    0.90364994    0.90372967    0.10760000
opls_146-626    H    0.53997994    0.94627999    0.26427033    0.11210000
opls_146-627    H    0.53166999    0.98459990    0.22917033    0.22860000
opls_146-628    H    0.47480013    0.86635007    0.06517033    0.11560000
opls_146-629    H    0.48325989    0.82741993    0.06546044    0.10580000
opls_146-630    H    0.56981995    0.88335006    0.15548022    0.10860000
opls_146-631    H    0.56155991    0.92251997    0.15137033    0.10750000
opls_144-632    H    0.55441003    0.83399994    0.11598022    0.09270000
opls_146-633    H    0.47483989    0.75226991    0.09526044    0.11300000
opls_146-634    H    0.56495992    0.76242994    0.94515055    0.11050000
opls_146-635    H    0.56100992    0.80360996    0.98564945    0.09490000
opls_144-636    H    0.49129000    0.68706991    0.83913956    0.09270000
opls_146-637    H    0.47306006    0.63700008    0.79331978    0.11430000
opls_146-638    H    0.47826003    0.59609000    0.79252967    0.11270000
opls_146-639    H    0.56297993    0.64630990    0.94027033    0.09490000
opls_146-640    H    0.55688003    0.68656000    0.95027033    0.08710000
opls_146-641    H    0.49609998    0.56971005    0.70062967    0.10760000
opls_146-642    H    0.49788998    0.52725004    0.74144945    0.08530000
opls_146-643    H    0.55107999    0.56521009    0.11126044    0.08090000
opls_146-644    H    0.55262996    0.60737997    0.06295055    0.11050000
opls_702-645    H    0.45604999    0.69685989    0.98505055    0.15910000
opls_702-646    H    0.46171996    0.70434005    0.17910989    0.15810000
opls_702-647    H    0.47647001    0.68619993    0.09226044    0.12160000
opls_146-648    H    0.94363991    0.45976000    0.84408022    0.22780000
opls_146-649    H    0.90365002    0.41843991    0.90372967    0.10760000
opls_146-650    H    0.94627993    0.40629994    0.26427033    0.11210000
opls_146-651    H    0.98460002    0.45293003    0.22917033    0.22860000
opls_146-652    H    0.86635000    0.39155004    0.06517033    0.11560000
opls_146-653    H    0.82741998    0.34416007    0.06546044    0.10580000
opls_146-654    H    0.88335003    0.31352991    0.15548022    0.10860000
opls_146-655    H    0.92252004    0.36096005    0.15137033    0.09230000
opls_144-656    H    0.83399998    0.27959009    0.11598022    0.09270000
opls_146-657    H    0.75226993    0.27742991    0.09526044    0.11290000
opls_146-658    H    0.76243004    0.19747002    0.94515055    0.11050000
opls_146-659    H    0.80360998    0.24259992    0.98564945    0.09490000
opls_144-660    H    0.68707007    0.19578001    0.83913956    0.09280000
opls_146-661    H    0.63699992    0.16394000    0.79331978    0.11430000
opls_146-662    H    0.59609003    0.11783003    0.79252967    0.11270000
opls_146-663    H    0.64630988    0.08332992    0.94027033    0.09500000
opls_146-664    H    0.68656011    0.12968007    0.95027033    0.08710000
opls_146-665    H    0.56971005    0.07361008    0.70062967    0.10960000
opls_146-666    H    0.52724991    0.02935995    0.74144945    0.08530000
opls_146-667    H    0.56520997    0.01413010    0.11126044    0.08090000
opls_146-668    H    0.60738007    0.05475004    0.06295055    0.11050000
opls_702-669    H    0.69685994    0.24081001    0.98505055    0.15910000
opls_702-670    H    0.70433987    0.24261990    0.17910989    0.15810000
opls_702-671    H    0.68620012    0.20973008    0.09226044    0.12160000
opls_146-672    H    0.54023997    0.48388009    0.84408022    0.22780000
opls_146-673    H    0.58155995    0.48521003    0.90372967    0.10760000
opls_146-674    H    0.59370001    0.53998005    0.26427033    0.11220000
opls_146-675    H    0.54707008    0.53167008    0.22917033    0.22870000
opls_146-676    H    0.60844995    0.47480003    0.06517033    0.11560000
opls_146-677    H    0.65584002    0.48326007    0.06546044    0.10580000
opls_146-678    H    0.68646999    0.56981994    0.15548022    0.10860000
opls_146-679    H    0.63903987    0.56155992    0.15137033    0.10750000
opls_144-680    H    0.72040997    0.55441006    0.11598022    0.09270000
opls_146-681    H    0.72256996    0.47484000    0.09526044    0.11290000
opls_146-682    H    0.80252989    0.56495992    0.94515055    0.11050000
opls_146-683    H    0.75739994    0.56101004    0.98564945    0.09490000
opls_144-684    H    0.80421993    0.49128990    0.83913956    0.09270000
opls_146-685    H    0.83605996    0.47306008    0.79331978    0.11430000
opls_146-686    H    0.88217000    0.47825997    0.79252967    0.11270000
opls_146-687    H    0.91667006    0.56297998    0.94027033    0.09490000
opls_146-688    H    0.87031992    0.55687993    0.95027033    0.08710000
opls_146-689    H    0.92638993    0.49609997    0.70062967    0.10960000
opls_146-690    H    0.97064007    0.49789009    0.74144945    0.08530000
opls_146-691    H    0.98587003    0.55107999    0.11126044    0.08100000
opls_146-692    H    0.94524990    0.55262993    0.06295055    0.11050000
opls_702-693    H    0.75918997    0.45605010    0.98505055    0.15910000
opls_702-694    H    0.75737998    0.46171995    0.17910989    0.15810000
opls_702-695    H    0.79027000    0.47647006    0.09226044    0.12160000
opls_146-696    H    0.51611994    0.05635992    0.84408022    0.22780000
opls_146-697    H    0.51479003    0.09635006    0.90372967    0.10760000
opls_146-698    H    0.46002006    0.05372001    0.26427033    0.11210000
opls_146-699    H    0.46833001    0.01540010    0.22917033    0.22880000
opls_146-700    H    0.52519987    0.13364993    0.06517033    0.11560000
opls_146-701    H    0.51674011    0.17258007    0.06546044    0.10590000
opls_146-702    H    0.43018005    0.11664994    0.15548022    0.10860000
opls_146-703    H    0.43844009    0.07748003    0.15137033    0.10750000
opls_144-704    H    0.44558997    0.16600006    0.11598022    0.09270000
opls_146-705    H    0.52516011    0.24773009    0.09526044    0.11290000
opls_146-706    H    0.43504008    0.23757006    0.94515055    0.11050000
opls_146-707    H    0.43899008    0.19639004    0.98564945    0.09490000
opls_144-708    H    0.50871000    0.31293009    0.83913956    0.09270000
opls_146-709    H    0.52693994    0.36299992    0.79331978    0.11430000
opls_146-710    H    0.52173997    0.40391000    0.79252967    0.11280000
opls_146-711    H    0.43702007    0.35369010    0.94027033    0.09490000
opls_146-712    H    0.44311997    0.31344000    0.95027033    0.08710000
opls_146-713    H    0.50390002    0.43028995    0.70062967    0.10760000
opls_146-714    H    0.50211002    0.47274996    0.74144945    0.08530000
opls_146-715    H    0.44892001    0.43478991    0.11126044    0.08090000
opls_146-716    H    0.44737004    0.39262003    0.06295055    0.11050000
opls_702-717    H    0.54394991    0.30313990    0.98505055    0.15910000
opls_702-718    H    0.53828004    0.29565995    0.17910989    0.15810000
opls_702-719    H    0.52352999    0.31380007    0.09226044    0.12160000
