#======================================================================
# Crystal Data Generated By AuToFF
#----------------------------------------------------------------------

data_AuToFF_phase_1

_cell_length_a                         54.1399
_cell_length_b                         54.1399
_cell_length_c                         49.1037
_cell_angle_alpha                      90.00
_cell_angle_beta                       90.00
_cell_angle_gamma                      120.00
_symmetry_space_group_name_H-M_alt     'P 1'
_symmetry_space_group_IT_number        1

loop_
_space_group_symop_operation_xyz
   'x, y, z'

loop_
   _atom_site_label
   _atom_site_type_symbol
   _atom_site_fract_x
   _atom_site_fract_y
   _atom_site_fract_z
   _atom_site_charge
opls_700-0    C    0.33085006    0.63973000    0.38708997    0.61900000
opls_145-1    C    0.32868997    0.61634994    0.37300000    -0.11500000
opls_700-2    C    0.32663990    0.59305988    0.38772007    0.61900000
opls_145-3    C    0.34559002    0.57014989    0.35651000    -0.11500000
opls_700-4    C    0.32333008    0.56793006    0.37280001    0.61900000
opls_145-5    C    0.29917994    0.54112002    0.37723003    -0.11500000
opls_727-6    C    0.29801998    0.51653001    0.36694994    0.20000000
opls_700-7    C    0.32123993    0.51847002    0.35230991    0.61900000
opls_145-8    C    0.34466010    0.54555008    0.34648000    -0.11500000
opls_142-9    C    0.32188001    0.49225993    0.34553995    -0.11500000
opls_145-10    C    0.37592000    0.47461009    0.32438004    -0.11500000
opls_145-11    C    0.35042988    0.46977991    0.33636997    -0.11500000
opls_145-12    C    0.33160002    0.44264995    0.34723005    -0.11500000
opls_145-13    C    0.33832009    0.42093006    0.34601995    -0.11500000
opls_700-14    C    0.36396997    0.42584000    0.33413001    0.61900000
opls_727-15    C    0.38270999    0.45290001    0.32312005    0.20000000
opls_700-16    C    0.38556008    0.35915006    0.33358993    0.61900000
opls_145-17    C    0.35693004    0.42524004    0.62603001    -0.11500000
opls_700-18    C    0.33262010    0.40781009    0.64201007    0.61900000
opls_145-19    C    0.30759005    0.40904008    0.63689009    -0.11500000
opls_145-20    C    0.30618005    0.42512999    0.61541004    -0.11500000
opls_700-21    C    0.33007989    0.44138988    0.59894000    0.61900000
opls_145-22    C    0.35549998    0.44139991    0.60453000    -0.11500000
opls_727-23    C    0.31618008    0.47573002    0.57965998    0.20000000
opls_700-24    C    0.32851993    0.45842996    0.57608001    0.61900000
opls_145-25    C    0.33912998    0.45722002    0.55029010    -0.11500000
opls_145-26    C    0.33733006    0.47283004    0.52845997    -0.11500000
opls_145-27    C    0.32501989    0.49014994    0.53214992    -0.11500000
opls_145-28    C    0.31435010    0.49124002    0.55779992    -0.11500000
opls_142-29    C    0.33601003    0.51323994    0.48743007    -0.11500000
opls_700-30    C    0.32799003    0.57108001    0.43319994    0.61900000
opls_700-31    C    0.32746008    0.59376008    0.41672990    0.61900000
opls_145-32    C    0.32924994    0.61727003    0.43060991    -0.11500000
opls_700-33    C    0.33088009    0.63993006    0.41593994    0.61900000
opls_145-34    C    0.30867006    0.55832005    0.45471991    -0.11500000
opls_145-35    C    0.31077002    0.53895991    0.47194998    -0.11500000
opls_700-36    C    0.33228010    0.53196003    0.46798001    0.61900000
opls_145-37    C    0.34909999    0.56366999    0.42882003    -0.11500000
opls_727-38    C    0.35109993    0.54406991    0.44589002    0.20000000
opls_145-39    C    0.36514006    0.37464001    0.64278008    -0.11500000
opls_145-40    C    0.38693992    0.36798991    0.64252999    -0.11500000
opls_700-41    C    0.40288991    0.37126996    0.66611009    0.61900000
opls_145-42    C    0.39628989    0.38078996    0.69006999    -0.11500000
opls_145-43    C    0.37448999    0.38742001    0.69035999    -0.11500000
opls_701-44    C    0.33332996    0.39042002    0.66666993    -0.39500000
opls_701-45    C    0.33332998    0.66666994    0.95910003    -0.39500000
opls_701-46    C    0.33332998    0.66666994    0.90469007    -0.39500000
opls_700-47    C    0.36027005    0.69112003    0.38708997    0.61900000
opls_145-48    C    0.38364991    0.71233998    0.37300000    -0.11500000
opls_700-49    C    0.40694005    0.73357999    0.38772007    0.61900000
opls_145-50    C    0.42984992    0.77543998    0.35651000    -0.11500000
opls_700-51    C    0.43207002    0.75539990    0.37280001    0.61900000
opls_145-52    C    0.45887995    0.75805994    0.37723003    -0.11500000
opls_727-53    C    0.48346991    0.78148991    0.36694994    0.20000000
opls_700-54    C    0.48152996    0.80277001    0.35230991    0.61900000
opls_145-55    C    0.45444995    0.79910989    0.34648000    -0.11500000
opls_142-56    C    0.50773995    0.82961994    0.34553995    -0.11500000
opls_145-57    C    0.52539010    0.90131004    0.32438004    -0.11500000
opls_145-58    C    0.53022004    0.88064994    0.33636997    -0.11500000
opls_145-59    C    0.55734997    0.88894998    0.34723005    -0.11500000
opls_145-60    C    0.57906995    0.91738992    0.34601995    -0.11500000
opls_700-61    C    0.57415994    0.93812999    0.33413001    0.61900000
opls_727-62    C    0.54709997    0.92980990    0.32312005    0.20000000
opls_700-63    C    0.64085001    0.02640993    0.33358993    0.61900000
opls_145-64    C    0.57476004    0.93168998    0.62603001    -0.11500000
opls_700-65    C    0.59219004    0.92480996    0.64201007    0.61900000
opls_145-66    C    0.59095995    0.89854997    0.63689009    -0.11500000
opls_145-67    C    0.57486994    0.88105006    0.61541004    -0.11500000
opls_700-68    C    0.55861008    0.88868999    0.59894000    0.61900000
opls_145-69    C    0.55860009    0.91410006    0.60453000    -0.11500000
opls_727-70    C    0.52427003    0.84044991    0.57965998    0.20000000
opls_700-71    C    0.54156994    0.87008998    0.57608001    0.61900000
opls_145-72    C    0.54278009    0.88191001    0.55029010    -0.11500000
opls_145-73    C    0.52716996    0.86449989    0.52845997    -0.11500000
opls_145-74    C    0.50985005    0.83487006    0.53214992    -0.11500000
opls_145-75    C    0.50876000    0.82310996    0.55779992    -0.11500000
opls_142-76    C    0.48675991    0.82276999    0.48743007    -0.11500000
opls_700-77    C    0.42891996    0.75690993    0.43319994    0.61900000
opls_700-78    C    0.40624002    0.73370006    0.41672990    0.61900000
opls_145-79    C    0.38272997    0.71197997    0.43060991    -0.11500000
opls_700-80    C    0.36006999    0.69095004    0.41593994    0.61900000
opls_145-81    C    0.44167995    0.75035005    0.45471991    -0.11500000
opls_145-82    C    0.46103995    0.77180994    0.47194998    -0.11500000
opls_700-83    C    0.46804009    0.80032005    0.46798001    0.61900000
opls_145-84    C    0.43633000    0.78543006    0.42882003    -0.11500000
opls_727-85    C    0.45592999    0.80703008    0.44589002    0.20000000
opls_145-86    C    0.62535998    0.99050004    0.64278008    -0.11500000
opls_145-87    C    0.63200995    0.01895001    0.64252999    -0.11500000
opls_700-88    C    0.62873002    0.03161996    0.66611009    0.61900000
opls_145-89    C    0.61920993    0.01549997    0.69006999    -0.11500000
opls_145-90    C    0.61257995    0.98707006    0.69035999    -0.11500000
opls_701-91    C    0.60957995    0.94291004    0.66666993    -0.39500000
opls_700-92    C    0.30888007    0.66914997    0.38708997    0.61900000
opls_145-93    C    0.28766012    0.67131008    0.37300000    -0.11500000
opls_700-94    C    0.26641995    0.67335992    0.38772007    0.61900000
opls_145-95    C    0.22455996    0.65440991    0.35651000    -0.11500000
opls_700-96    C    0.24460008    0.67667004    0.37280001    0.61900000
opls_145-97    C    0.24194011    0.70082004    0.37723003    -0.11500000
opls_727-98    C    0.21851011    0.70198008    0.36694994    0.20000000
opls_700-99    C    0.19722993    0.67875998    0.35230991    0.61900000
opls_145-100    C    0.20088995    0.65534003    0.34648000    -0.11500000
opls_142-101    C    0.17037993    0.67811992    0.34553995    -0.11500000
opls_145-102    C    0.09868990    0.62407988    0.32438004    -0.11500000
opls_145-103    C    0.11934997    0.64956993    0.33636997    -0.11500000
opls_145-104    C    0.11105001    0.66840007    0.34723005    -0.11500000
opls_145-105    C    0.08260996    0.66168002    0.34601995    -0.11500000
opls_700-106    C    0.06187009    0.63603001    0.33413001    0.61900000
opls_727-107    C    0.07019004    0.61729008    0.32312005    0.20000000
opls_700-108    C    0.97359009    0.61444001    0.33358993    0.61900000
opls_145-109    C    0.06830992    0.64306998    0.62603001    -0.11500000
opls_700-110    C    0.07519005    0.66737995    0.64201007    0.61900000
opls_145-111    C    0.10145000    0.69240995    0.63689009    -0.11500000
opls_145-112    C    0.11895001    0.69381995    0.61541004    -0.11500000
opls_700-113    C    0.11130993    0.66991991    0.59894000    0.61900000
opls_145-114    C    0.08589993    0.64450003    0.60453000    -0.11500000
opls_727-115    C    0.15955007    0.68382007    0.57965998    0.20000000
opls_700-116    C    0.12990995    0.67148006    0.57608001    0.61900000
opls_145-117    C    0.11808993    0.66086998    0.55029010    -0.11500000
opls_145-118    C    0.13549998    0.66267007    0.52845997    -0.11500000
opls_145-119    C    0.16513006    0.67498000    0.53214992    -0.11500000
opls_145-120    C    0.17689009    0.68565002    0.55779992    -0.11500000
opls_142-121    C    0.17723006    0.66399006    0.48743007    -0.11500000
opls_700-122    C    0.24309001    0.67201006    0.43319994    0.61900000
opls_700-123    C    0.26630001    0.67254007    0.41672990    0.61900000
opls_145-124    C    0.28802009    0.67075000    0.43060991    -0.11500000
opls_700-125    C    0.30904993    0.66911989    0.41593994    0.61900000
opls_145-126    C    0.24965000    0.69132990    0.45471991    -0.11500000
opls_145-127    C    0.22818993    0.68922993    0.47194998    -0.11500000
opls_700-128    C    0.19967999    0.66771992    0.46798001    0.61900000
opls_145-129    C    0.21457001    0.65089995    0.42882003    -0.11500000
opls_727-130    C    0.19297008    0.64890001    0.44589002    0.20000000
opls_145-131    C    0.00949996    0.63485995    0.64278008    -0.11500000
opls_145-132    C    0.98105013    0.61306008    0.64252999    -0.11500000
opls_700-133    C    0.96838007    0.59711009    0.66611009    0.61900000
opls_145-134    C    0.98449999    0.60371006    0.69006999    -0.11500000
opls_145-135    C    0.01292988    0.62550993    0.69035999    -0.11500000
opls_701-136    C    0.05708991    0.66666994    0.66666993    -0.39500000
opls_700-137    C    0.63973010    0.33085003    0.61291003    0.61900000
opls_145-138    C    0.61635005    0.32868992    0.62700000    -0.11500000
opls_700-139    C    0.59306003    0.32664008    0.61227993    0.61900000
opls_145-140    C    0.57015004    0.34559009    0.64349000    -0.11500000
opls_700-141    C    0.56793005    0.32332996    0.62719999    0.61900000
opls_145-142    C    0.54112007    0.29917996    0.62276997    -0.11500000
opls_727-143    C    0.51653003    0.29801992    0.63305006    0.20000000
opls_700-144    C    0.51846995    0.32124002    0.64769009    0.61900000
opls_145-145    C    0.54554992    0.34465997    0.65352000    -0.11500000
opls_142-146    C    0.49226001    0.32188008    0.65446005    -0.11500000
opls_145-147    C    0.47460991    0.37591991    0.67561996    -0.11500000
opls_145-148    C    0.46978004    0.35043007    0.66363003    -0.11500000
opls_145-149    C    0.44264994    0.33159993    0.65276995    -0.11500000
opls_145-150    C    0.42092994    0.33831998    0.65398005    -0.11500000
opls_700-151    C    0.42584008    0.36396999    0.66586999    0.61900000
opls_727-152    C    0.45289996    0.38270992    0.67687995    0.20000000
opls_700-153    C    0.35915008    0.38555999    0.66641007    0.61900000
opls_145-154    C    0.42523994    0.35693002    0.37396999    -0.11500000
opls_700-155    C    0.40781010    0.33262005    0.35798993    0.61900000
opls_145-156    C    0.40904005    0.30759005    0.36310991    -0.11500000
opls_145-157    C    0.42513005    0.30618005    0.38458996    -0.11500000
opls_700-158    C    0.44139002    0.33008009    0.40106000    0.61900000
opls_145-159    C    0.44139990    0.35549997    0.39547000    -0.11500000
opls_727-160    C    0.47573001    0.31617993    0.42034002    0.20000000
opls_700-161    C    0.45842989    0.32851994    0.42391999    0.61900000
opls_145-162    C    0.45721996    0.33913002    0.44970990    -0.11500000
opls_145-163    C    0.47282992    0.33732993    0.47154003    -0.11500000
opls_145-164    C    0.49015006    0.32502000    0.46785008    -0.11500000
opls_145-165    C    0.49124007    0.31434998    0.44220008    -0.11500000
opls_142-166    C    0.51324000    0.33600994    0.51256993    -0.11500000
opls_700-167    C    0.57107995    0.32798994    0.56680006    0.61900000
opls_700-168    C    0.59375994    0.32745993    0.58327010    0.61900000
opls_145-169    C    0.61727009    0.32925000    0.56939009    -0.11500000
opls_700-170    C    0.63992992    0.33087989    0.58406006    0.61900000
opls_145-171    C    0.55831999    0.30866989    0.54528009    -0.11500000
opls_145-172    C    0.53895999    0.31077007    0.52805002    -0.11500000
opls_700-173    C    0.53196007    0.33228008    0.53201999    0.61900000
opls_145-174    C    0.56367006    0.34910005    0.57117997    -0.11500000
opls_727-175    C    0.54407007    0.35109999    0.55410998    0.20000000
opls_145-176    C    0.37464002    0.36514005    0.35721992    -0.11500000
opls_145-177    C    0.36799004    0.38693992    0.35747001    -0.11500000
opls_700-178    C    0.37126998    0.40288991    0.33388991    0.61900000
opls_145-179    C    0.38078993    0.39628994    0.30993001    -0.11500000
opls_145-180    C    0.38741995    0.37449007    0.30964001    -0.11500000
opls_701-181    C    0.39041997    0.33333006    0.33333007    -0.39500000
opls_701-182    C    0.66667002    0.33333006    0.04089997    -0.39500000
opls_701-183    C    0.66667002    0.33333006    0.09530993    -0.39500000
opls_700-184    C    0.69112006    0.36027000    0.61291003    0.61900000
opls_145-185    C    0.71234003    0.38365006    0.62700000    -0.11500000
opls_700-186    C    0.73357991    0.40693990    0.61227993    0.61900000
opls_145-187    C    0.77544002    0.42984990    0.64349000    -0.11500000
opls_700-188    C    0.75540002    0.43206994    0.62719999    0.61900000
opls_145-189    C    0.75805992    0.45887998    0.62276997    -0.11500000
opls_727-190    C    0.78148996    0.48346999    0.63305006    0.20000000
opls_700-191    C    0.80276991    0.48152998    0.64769009    0.61900000
opls_145-192    C    0.79911002    0.45444992    0.65352000    -0.11500000
opls_142-193    C    0.82962008    0.50774007    0.65446005    -0.11500000
opls_145-194    C    0.90130992    0.52538991    0.67561996    -0.11500000
opls_145-195    C    0.88064997    0.53022009    0.66363003    -0.11500000
opls_145-196    C    0.88895007    0.55735005    0.65276995    -0.11500000
opls_145-197    C    0.91739003    0.57906994    0.65398005    -0.11500000
opls_700-198    C    0.93812996    0.57416000    0.66586999    0.61900000
opls_727-199    C    0.92980998    0.54709999    0.67687995    0.20000000
opls_700-200    C    0.02641002    0.64084994    0.66641007    0.61900000
opls_145-201    C    0.93169000    0.57475996    0.37396999    -0.11500000
opls_700-202    C    0.92481001    0.59218991    0.35798993    0.61900000
opls_145-203    C    0.89854997    0.59095992    0.36310991    -0.11500000
opls_145-204    C    0.88105007    0.57487001    0.38458996    -0.11500000
opls_700-205    C    0.88868990    0.55860990    0.40106000    0.61900000
opls_145-206    C    0.91409997    0.55859988    0.39547000    -0.11500000
opls_727-207    C    0.84045006    0.52426998    0.42034002    0.20000000
opls_700-208    C    0.87008997    0.54157004    0.42391999    0.61900000
opls_145-209    C    0.88190996    0.54277998    0.44970990    -0.11500000
opls_145-210    C    0.86450002    0.52716996    0.47154003    -0.11500000
opls_145-211    C    0.83486995    0.50985006    0.46785008    -0.11500000
opls_145-212    C    0.82311008    0.50875998    0.44220008    -0.11500000
opls_142-213    C    0.82277009    0.48676006    0.51256993    -0.11500000
opls_700-214    C    0.75691002    0.42891999    0.56680006    0.61900000
opls_700-215    C    0.73369999    0.40623992    0.58327010    0.61900000
opls_145-216    C    0.71197991    0.38272997    0.56939009    -0.11500000
opls_700-217    C    0.69095002    0.36006994    0.58406006    0.61900000
opls_145-218    C    0.75035000    0.44167995    0.54528009    -0.11500000
opls_145-219    C    0.77181011    0.46104009    0.52805002    -0.11500000
opls_700-220    C    0.80032007    0.46803997    0.53201999    0.61900000
opls_145-221    C    0.78543000    0.43633001    0.57117997    -0.11500000
opls_727-222    C    0.80703002    0.45593009    0.55410998    0.20000000
opls_145-223    C    0.99050005    0.62535999    0.35721992    -0.11500000
opls_145-224    C    0.01895001    0.63201009    0.35747001    -0.11500000
opls_700-225    C    0.03161995    0.62873004    0.33388991    0.61900000
opls_145-226    C    0.01549993    0.61921004    0.30993001    -0.11500000
opls_145-227    C    0.98706997    0.61257999    0.30964001    -0.11500000
opls_701-228    C    0.94290993    0.60957998    0.33333007    -0.39500000
opls_700-229    C    0.66915002    0.30887997    0.61291003    0.61900000
opls_145-230    C    0.67130993    0.28766002    0.62700000    -0.11500000
opls_700-231    C    0.67336006    0.26642001    0.61227993    0.61900000
opls_145-232    C    0.65440994    0.22456002    0.64349000    -0.11500000
opls_700-233    C    0.67667001    0.24459989    0.62719999    0.61900000
opls_145-234    C    0.70082001    0.24194006    0.62276997    -0.11500000
opls_727-235    C    0.70198001    0.21851009    0.63305006    0.20000000
opls_700-236    C    0.67875995    0.19722999    0.64769009    0.61900000
opls_145-237    C    0.65533995    0.20088989    0.65352000    -0.11500000
opls_142-238    C    0.67812002    0.17038006    0.65446005    -0.11500000
opls_145-239    C    0.62408007    0.09868996    0.67561996    -0.11500000
opls_145-240    C    0.64957010    0.11935006    0.66363003    -0.11500000
opls_145-241    C    0.66839999    0.11105002    0.65276995    -0.11500000
opls_145-242    C    0.66168003    0.08261008    0.65398005    -0.11500000
opls_700-243    C    0.63602995    0.06187001    0.66586999    0.61900000
opls_727-244    C    0.61729006    0.07019010    0.67687995    0.20000000
opls_700-245    C    0.61444008    0.97359007    0.66641007    0.61900000
opls_145-246    C    0.64307006    0.06831002    0.37396999    -0.11500000
opls_700-247    C    0.66738008    0.07519004    0.35798993    0.61900000
opls_145-248    C    0.69240998    0.10145003    0.36310991    -0.11500000
opls_145-249    C    0.69381988    0.11894994    0.38458996    -0.11500000
opls_700-250    C    0.66992008    0.11131001    0.40106000    0.61900000
opls_145-251    C    0.64450003    0.08589994    0.39547000    -0.11500000
opls_727-252    C    0.68382012    0.15955009    0.42034002    0.20000000
opls_700-253    C    0.67147996    0.12991002    0.42391999    0.61900000
opls_145-254    C    0.66087008    0.11808999    0.44970990    -0.11500000
opls_145-255    C    0.66266996    0.13549990    0.47154003    -0.11500000
opls_145-256    C    0.67497999    0.16512994    0.46785008    -0.11500000
opls_145-257    C    0.68565004    0.17689004    0.44220008    -0.11500000
opls_142-258    C    0.66398991    0.17723001    0.51256993    -0.11500000
opls_700-259    C    0.67201004    0.24309007    0.56680006    0.61900000
opls_700-260    C    0.67253996    0.26629994    0.58327010    0.61900000
opls_145-261    C    0.67075000    0.28802003    0.56939009    -0.11500000
opls_700-262    C    0.66911994    0.30904996    0.58406006    0.61900000
opls_145-263    C    0.69132990    0.24964995    0.54528009    -0.11500000
opls_145-264    C    0.68923000    0.22819006    0.52805002    -0.11500000
opls_700-265    C    0.66772004    0.19967995    0.53201999    0.61900000
opls_145-266    C    0.65089994    0.21456994    0.57117997    -0.11500000
opls_727-267    C    0.64889991    0.19296992    0.55410998    0.20000000
opls_145-268    C    0.63485993    0.00949996    0.35721992    -0.11500000
opls_145-269    C    0.61305995    0.98104999    0.35747001    -0.11500000
opls_700-270    C    0.59711007    0.96838004    0.33388991    0.61900000
opls_145-271    C    0.60370995    0.98450003    0.30993001    -0.11500000
opls_145-272    C    0.62550989    0.01292994    0.30964001    -0.11500000
opls_701-273    C    0.66666991    0.05708996    0.33333007    -0.39500000
opls_700-274    C    0.99785001    0.97272991    0.72008993    0.61900000
opls_145-275    C    0.99569003    0.94935006    0.70599996    -0.11500000
opls_700-276    C    0.99363996    0.92606000    0.72072003    0.61900000
opls_145-277    C    0.01259008    0.90315001    0.68950996    -0.11500000
opls_700-278    C    0.99033004    0.90092997    0.70579997    0.61900000
opls_145-279    C    0.96617989    0.87411992    0.71022998    -0.11500000
opls_727-280    C    0.96501993    0.84952992    0.69994990    0.20000000
opls_700-281    C    0.98823988    0.85146992    0.68531007    0.61900000
opls_145-282    C    0.01166005    0.87854998    0.67947996    -0.11500000
opls_142-283    C    0.98888007    0.82526005    0.67853991    -0.11500000
opls_145-284    C    0.04291995    0.80760999    0.65737999    -0.11500000
opls_145-285    C    0.01742994    0.80278003    0.66936993    -0.11500000
opls_145-286    C    0.99860008    0.77565006    0.68023000    -0.11500000
opls_145-287    C    0.00532004    0.75392997    0.67901991    -0.11500000
opls_700-288    C    0.03096992    0.75883991    0.66712997    0.61900000
opls_727-289    C    0.04970994    0.78589992    0.65612001    0.20000000
opls_700-290    C    0.05256003    0.69214996    0.66659009    0.61900000
opls_145-291    C    0.02392999    0.75823995    0.95902997    -0.11500000
opls_700-292    C    0.99962005    0.74080999    0.97501003    0.61900000
opls_145-293    C    0.97459000    0.74203998    0.96989005    -0.11500000
opls_145-294    C    0.97318001    0.75812989    0.94841000    -0.11500000
opls_700-295    C    0.99707995    0.77439000    0.93193996    0.61900000
opls_145-296    C    0.02250004    0.77440002    0.93752996    -0.11500000
opls_727-297    C    0.98318003    0.80872993    0.91265994    0.20000000
opls_700-298    C    0.99551999    0.79143008    0.90907997    0.61900000
opls_145-299    C    0.00612993    0.79021992    0.88329006    -0.11500000
opls_145-300    C    0.00433001    0.80582995    0.86145993    -0.11500000
opls_145-301    C    0.99201995    0.82315006    0.86515008    -0.11500000
opls_145-302    C    0.98135005    0.82423993    0.89080008    -0.11500000
opls_142-303    C    0.00301009    0.84624006    0.82043003    -0.11500000
opls_700-304    C    0.99498998    0.90407991    0.76619990    0.61900000
opls_700-305    C    0.99446003    0.92675999    0.74973006    0.61900000
opls_145-306    C    0.99624990    0.95026994    0.76361007    -0.11500000
opls_700-307    C    0.99788004    0.97292997    0.74894010    0.61900000
opls_145-308    C    0.97567001    0.89131996    0.78772007    -0.11500000
opls_145-309    C    0.97777008    0.87196003    0.80494993    -0.11500000
opls_700-310    C    0.99928005    0.86495994    0.80097997    0.61900000
opls_145-311    C    0.01609994    0.89666990    0.76181999    -0.11500000
opls_727-312    C    0.01809999    0.87707002    0.77888998    0.20000000
opls_145-313    C    0.03214001    0.70763991    0.97578003    -0.11500000
opls_145-314    C    0.05393998    0.70099003    0.97552995    -0.11500000
opls_700-315    C    0.06988997    0.70427008    0.99911005    0.61900000
opls_145-316    C    0.06328995    0.71379008    0.02306995    -0.11500000
opls_145-317    C    0.04148994    0.72041992    0.02335995    -0.11500000
opls_701-318    C    0.00032991    0.72341992    0.99967009    -0.39500000
opls_701-319    C    0.00033004    0.99967005    0.29209998    -0.39500000
opls_701-320    C    0.00033004    0.99967005    0.23769003    -0.39500000
opls_700-321    C    0.02727001    0.02411993    0.72008993    0.61900000
opls_145-322    C    0.05064997    0.04534010    0.70599996    -0.11500000
opls_700-323    C    0.07394011    0.06658010    0.72072003    0.61900000
opls_145-324    C    0.09684998    0.10844010    0.68950996    -0.11500000
opls_700-325    C    0.09907008    0.08840002    0.70579997    0.61900000
opls_145-326    C    0.12588001    0.09106005    0.71022998    -0.11500000
opls_727-327    C    0.15046997    0.11449003    0.69994990    0.20000000
opls_700-328    C    0.14852991    0.13576991    0.68531007    0.61900000
opls_145-329    C    0.12145001    0.13211001    0.67947996    -0.11500000
opls_142-330    C    0.17474001    0.16262005    0.67853991    -0.11500000
opls_145-331    C    0.19239006    0.23430994    0.65737999    -0.11500000
opls_145-332    C    0.19722010    0.21365006    0.66936993    -0.11500000
opls_145-333    C    0.22435003    0.22195010    0.68023000    -0.11500000
opls_145-334    C    0.24607001    0.25039004    0.67901991    -0.11500000
opls_700-335    C    0.24115990    0.27112990    0.66712997    0.61900000
opls_727-336    C    0.21410003    0.26281002    0.65612001    0.20000000
opls_700-337    C    0.30785007    0.35941005    0.66659009    0.61900000
opls_145-338    C    0.24176010    0.26469009    0.95902997    -0.11500000
opls_700-339    C    0.25919010    0.25781008    0.97501003    0.61900000
opls_145-340    C    0.25796001    0.23155008    0.96989005    -0.11500000
opls_145-341    C    0.24186989    0.21404996    0.94841000    -0.11500000
opls_700-342    C    0.22561003    0.22168990    0.93193996    0.61900000
opls_145-343    C    0.22560004    0.24709997    0.93752996    -0.11500000
opls_727-344    C    0.19127009    0.17345003    0.91265994    0.20000000
opls_700-345    C    0.20857000    0.20309010    0.90907997    0.61900000
opls_145-346    C    0.20978004    0.21490991    0.88329006    -0.11500000
opls_145-347    C    0.19417002    0.19750001    0.86145993    -0.11500000
opls_145-348    C    0.17685000    0.16786996    0.86515008    -0.11500000
opls_145-349    C    0.17576006    0.15611008    0.89080008    -0.11500000
opls_142-350    C    0.15375986    0.15576990    0.82043003    -0.11500000
opls_700-351    C    0.09592002    0.08991004    0.76619990    0.61900000
opls_700-352    C    0.07323997    0.06669997    0.74973006    0.61900000
opls_145-353    C    0.04973003    0.04498008    0.76361007    -0.11500000
opls_700-354    C    0.02706994    0.02394995    0.74894010    0.61900000
opls_145-355    C    0.10867990    0.08334995    0.78772007    -0.11500000
opls_145-356    C    0.12804001    0.10481006    0.80494993    -0.11500000
opls_700-357    C    0.13504004    0.13331995    0.80097997    0.61900000
opls_145-358    C    0.10332995    0.11842996    0.76181999    -0.11500000
opls_727-359    C    0.12292994    0.14002998    0.77888998    0.20000000
opls_145-360    C    0.29235993    0.32349995    0.97578003    -0.11500000
opls_145-361    C    0.29900991    0.35194991    0.97552995    -0.11500000
opls_700-362    C    0.29573008    0.36462007    0.99911005    0.61900000
opls_145-363    C    0.28620999    0.34850009    0.02306995    -0.11500000
opls_145-364    C    0.27957990    0.32006996    0.02335995    -0.11500000
opls_701-365    C    0.27657991    0.27590995    0.99967009    -0.39500000
opls_700-366    C    0.97588013    0.00215008    0.72008993    0.61900000
opls_145-367    C    0.95466007    0.00430998    0.70599996    -0.11500000
opls_700-368    C    0.93342001    0.00636004    0.72072003    0.61900000
opls_145-369    C    0.89156002    0.98741003    0.68950996    -0.11500000
opls_700-370    C    0.91160004    0.00966994    0.70579997    0.61900000
opls_145-371    C    0.90894007    0.03381995    0.71022998    -0.11500000
opls_727-372    C    0.88551007    0.03497998    0.69994990    0.20000000
opls_700-373    C    0.86422999    0.01176009    0.68531007    0.61900000
opls_145-374    C    0.86788990    0.98833993    0.67947996    -0.11500000
opls_142-375    C    0.83737999    0.01112004    0.67853991    -0.11500000
opls_145-376    C    0.76568996    0.95708000    0.65737999    -0.11500000
opls_145-377    C    0.78635003    0.98257005    0.66936993    -0.11500000
opls_145-378    C    0.77804996    0.00139998    0.68023000    -0.11500000
opls_145-379    C    0.74960991    0.99467992    0.67901991    -0.11500000
opls_700-380    C    0.72887004    0.96902991    0.66712997    0.61900000
opls_727-381    C    0.73718999    0.95028999    0.65612001    0.20000000
opls_700-382    C    0.64059005    0.94743992    0.66659009    0.61900000
opls_145-383    C    0.73530987    0.97606989    0.95902997    -0.11500000
opls_700-384    C    0.74219011    0.00038007    0.97501003    0.61900000
opls_145-385    C    0.76845006    0.02541007    0.96989005    -0.11500000
opls_145-386    C    0.78595007    0.02682007    0.94841000    -0.11500000
opls_700-387    C    0.77830999    0.00292003    0.93193996    0.61900000
opls_145-388    C    0.75289988    0.97749993    0.93752996    -0.11500000
opls_727-389    C    0.82655003    0.01681997    0.91265994    0.20000000
opls_700-390    C    0.79690990    0.00447996    0.90907997    0.61900000
opls_145-391    C    0.78508989    0.99386988    0.88329006    -0.11500000
opls_145-392    C    0.80249994    0.99566997    0.86145993    -0.11500000
opls_145-393    C    0.83213001    0.00797990    0.86515008    -0.11500000
opls_145-394    C    0.84389004    0.01864992    0.89080008    -0.11500000
opls_142-395    C    0.84423001    0.99698997    0.82043003    -0.11500000
opls_700-396    C    0.91008996    0.00500997    0.76619990    0.61900000
opls_700-397    C    0.93329996    0.00553997    0.74973006    0.61900000
opls_145-398    C    0.95501986    0.00374990    0.76361007    -0.11500000
opls_700-399    C    0.97604999    0.00212001    0.74894010    0.61900000
opls_145-400    C    0.91665005    0.02433002    0.78772007    -0.11500000
opls_145-401    C    0.89518999    0.02223005    0.80494993    -0.11500000
opls_700-402    C    0.86668005    0.00072004    0.80097997    0.61900000
opls_145-403    C    0.88157007    0.98390007    0.76181999    -0.11500000
opls_727-404    C    0.85997004    0.98189992    0.77888998    0.20000000
opls_145-405    C    0.67650002    0.96786007    0.97578003    -0.11500000
opls_145-406    C    0.64805008    0.94605999    0.97552995    -0.11500000
opls_700-407    C    0.63538002    0.93010999    0.99911005    0.61900000
opls_145-408    C    0.65149995    0.93670997    0.02306995    -0.11500000
opls_145-409    C    0.67992994    0.95851005    0.02335995    -0.11500000
opls_701-410    C    0.72408997    0.99967005    0.99967009    -0.39500000
opls_700-411    C    0.30673006    0.66384994    0.94590998    0.61900000
opls_145-412    C    0.28335010    0.66169004    0.95999996    -0.11500000
opls_700-413    C    0.26005998    0.65963999    0.94528009    0.61900000
opls_145-414    C    0.23715000    0.67858999    0.97648996    -0.11500000
opls_700-415    C    0.23493011    0.65633008    0.96019994    0.61900000
opls_145-416    C    0.20811994    0.63218007    0.95576993    -0.11500000
opls_727-417    C    0.18353009    0.63102004    0.96605001    0.20000000
opls_700-418    C    0.18546991    0.65423993    0.98069005    0.61900000
opls_145-419    C    0.21254998    0.67766009    0.98651996    -0.11500000
opls_142-420    C    0.15925996    0.65487998    0.98746001    -0.11500000
opls_145-421    C    0.14160997    0.70892002    0.00861992    -0.11500000
opls_145-422    C    0.13677999    0.68342997    0.99662999    -0.11500000
opls_145-423    C    0.10965000    0.66460005    0.98576991    -0.11500000
opls_145-424    C    0.08792990    0.67131989    0.98698000    -0.11500000
opls_700-425    C    0.09284004    0.69696990    0.99886994    0.61900000
opls_727-426    C    0.11990002    0.71571003    0.00987991    0.20000000
opls_700-427    C    0.02615004    0.71855989    0.99941002    0.61900000
opls_145-428    C    0.09223989    0.68992992    0.70696994    -0.11500000
opls_700-429    C    0.07481006    0.66561996    0.69099009    0.61900000
opls_145-430    C    0.07604000    0.64058995    0.69611007    -0.11500000
opls_145-431    C    0.09213001    0.63917995    0.71758992    -0.11500000
opls_700-432    C    0.10838997    0.66307999    0.73405996    0.61900000
opls_145-433    C    0.10839996    0.68850009    0.72846995    -0.11500000
opls_727-434    C    0.14273007    0.64918005    0.75333997    0.20000000
opls_700-435    C    0.12542995    0.66152006    0.75691995    0.61900000
opls_145-436    C    0.12421991    0.67212993    0.78271006    -0.11500000
opls_145-437    C    0.13982998    0.67033005    0.80453998    -0.11500000
opls_145-438    C    0.15715001    0.65801990    0.80085004    -0.11500000
opls_145-439    C    0.15824003    0.64734989    0.77520004    -0.11500000
opls_142-440    C    0.18024006    0.66901005    0.84557009    -0.11500000
opls_700-441    C    0.23808001    0.66099005    0.89980002    0.61900000
opls_700-442    C    0.26076000    0.66046005    0.91627006    0.61900000
opls_145-443    C    0.28426986    0.66224990    0.90239004    -0.11500000
opls_700-444    C    0.30692998    0.66388001    0.91706002    0.61900000
opls_145-445    C    0.22532005    0.64167001    0.87828005    -0.11500000
opls_145-446    C    0.20595995    0.64376997    0.86104998    -0.11500000
opls_700-447    C    0.19896003    0.66527999    0.86501995    0.61900000
opls_145-448    C    0.23067002    0.68209995    0.90417993    -0.11500000
opls_727-449    C    0.21107002    0.68409989    0.88710993    0.20000000
opls_145-450    C    0.04163997    0.69813996    0.69022009    -0.11500000
opls_145-451    C    0.03499010    0.71994003    0.69046996    -0.11500000
opls_700-452    C    0.03827004    0.73589003    0.66689007    0.61900000
opls_145-453    C    0.04778999    0.72929005    0.64292996    -0.11500000
opls_145-454    C    0.05441991    0.70748998    0.64263996    -0.11500000
opls_701-455    C    0.33366997    0.66632997    0.37389993    -0.39500000
opls_701-456    C    0.33366997    0.66632997    0.42831009    -0.39500000
opls_700-457    C    0.35812001    0.69326990    0.94590998    0.61900000
opls_145-458    C    0.37933998    0.71664996    0.95999996    -0.11500000
opls_700-459    C    0.40057997    0.73994002    0.94528009    0.61900000
opls_145-460    C    0.44244008    0.76285001    0.97648996    -0.11500000
opls_700-461    C    0.42240008    0.76507005    0.96019994    0.61900000
opls_145-462    C    0.42505987    0.79187989    0.95576993    -0.11500000
opls_727-463    C    0.44848991    0.81646989    0.96605001    0.20000000
opls_700-464    C    0.46976986    0.81452989    0.98069005    0.61900000
opls_145-465    C    0.46611008    0.78745004    0.98651996    -0.11500000
opls_142-466    C    0.49662004    0.84073997    0.98746001    -0.11500000
opls_145-467    C    0.56830998    0.85839003    0.00861992    -0.11500000
opls_145-468    C    0.54764992    0.86321999    0.99662999    -0.11500000
opls_145-469    C    0.55595003    0.89034996    0.98576991    -0.11500000
opls_145-470    C    0.58439009    0.91207006    0.98698000    -0.11500000
opls_700-471    C    0.60512992    0.90715990    0.99886994    0.61900000
opls_727-472    C    0.59680993    0.88009989    0.00987991    0.20000000
opls_700-473    C    0.69341008    0.97385006    0.99941002    0.61900000
opls_145-474    C    0.59869006    0.90776008    0.70696994    -0.11500000
opls_700-475    C    0.59181007    0.92519003    0.69099009    0.61900000
opls_145-476    C    0.56555003    0.92396004    0.69611007    -0.11500000
opls_145-477    C    0.54805002    0.90786991    0.71758992    -0.11500000
opls_700-478    C    0.55568996    0.89161002    0.73405996    0.61900000
opls_145-479    C    0.58110003    0.89160000    0.72846995    -0.11500000
opls_727-480    C    0.50745001    0.85726988    0.75333997    0.20000000
opls_700-481    C    0.53708992    0.87456995    0.75691995    0.61900000
opls_145-482    C    0.54890991    0.87577989    0.78271006    -0.11500000
opls_145-483    C    0.53150007    0.86017007    0.80453998    -0.11500000
opls_145-484    C    0.50186990    0.84284996    0.80085004    -0.11500000
opls_145-485    C    0.49011003    0.84175988    0.77520004    -0.11500000
opls_142-486    C    0.48977004    0.81975996    0.84557009    -0.11500000
opls_700-487    C    0.42390997    0.76191989    0.89980002    0.61900000
opls_700-488    C    0.40070005    0.73924003    0.91627006    0.61900000
opls_145-489    C    0.37897997    0.71573008    0.90239004    -0.11500000
opls_700-490    C    0.35795008    0.69307006    0.91706002    0.61900000
opls_145-491    C    0.41735006    0.77468006    0.87828005    -0.11500000
opls_145-492    C    0.43881006    0.79403999    0.86104998    -0.11500000
opls_700-493    C    0.46732013    0.80104009    0.86501995    0.61900000
opls_145-494    C    0.45242995    0.76932991    0.90417993    -0.11500000
opls_727-495    C    0.47402998    0.78893000    0.88710993    0.20000000
opls_145-496    C    0.65750000    0.95835990    0.69022009    -0.11500000
opls_145-497    C    0.68594996    0.96500999    0.69046996    -0.11500000
opls_700-498    C    0.69861990    0.96172995    0.66689007    0.61900000
opls_145-499    C    0.68249988    0.95220994    0.64292996    -0.11500000
opls_145-500    C    0.65406993    0.94557989    0.64263996    -0.11500000
opls_700-501    C    0.33615008    0.64188009    0.94590998    0.61900000
opls_145-502    C    0.33830988    0.62065992    0.95999996    -0.11500000
opls_700-503    C    0.34036002    0.59941992    0.94528009    0.61900000
opls_145-504    C    0.32140989    0.55755992    0.97648996    -0.11500000
opls_700-505    C    0.34367007    0.57760001    0.96019994    0.61900000
opls_145-506    C    0.36781997    0.57493997    0.95576993    -0.11500000
opls_727-507    C    0.36897996    0.55151000    0.96605001    0.20000000
opls_700-508    C    0.34575991    0.53022990    0.98069005    0.61900000
opls_145-509    C    0.32234001    0.53389001    0.98651996    -0.11500000
opls_142-510    C    0.34511997    0.50337997    0.98746001    -0.11500000
opls_145-511    C    0.29108013    0.43169008    0.00861992    -0.11500000
opls_145-512    C    0.31657005    0.45234996    0.99662999    -0.11500000
opls_145-513    C    0.33539994    0.44404992    0.98576991    -0.11500000
opls_145-514    C    0.32867998    0.41560998    0.98698000    -0.11500000
opls_700-515    C    0.30302991    0.39486991    0.99886994    0.61900000
opls_727-516    C    0.28429002    0.40319000    0.00987991    0.20000000
opls_700-517    C    0.28144003    0.30658997    0.99941002    0.61900000
opls_145-518    C    0.31007002    0.40130993    0.70696994    -0.11500000
opls_700-519    C    0.33438003    0.40818994    0.69099009    0.61900000
opls_145-520    C    0.35940994    0.43444994    0.69611007    -0.11500000
opls_145-521    C    0.36081994    0.45195006    0.71758992    -0.11500000
opls_700-522    C    0.33692004    0.44430991    0.73405996    0.61900000
opls_145-523    C    0.31150009    0.41890006    0.72846995    -0.11500000
opls_727-524    C    0.35082007    0.49254999    0.75333997    0.20000000
opls_700-525    C    0.33847991    0.46290992    0.75691995    0.61900000
opls_145-526    C    0.32787004    0.45108990    0.78271006    -0.11500000
opls_145-527    C    0.32967002    0.46850001    0.80453998    -0.11500000
opls_145-528    C    0.34198005    0.49813006    0.80085004    -0.11500000
opls_145-529    C    0.35264999    0.50988994    0.77520004    -0.11500000
opls_142-530    C    0.33098986    0.51022991    0.84557009    -0.11500000
opls_700-531    C    0.33900999    0.57608998    0.89980002    0.61900000
opls_700-532    C    0.33954002    0.59930005    0.91627006    0.61900000
opls_145-533    C    0.33774995    0.62101994    0.90239004    -0.11500000
opls_700-534    C    0.33612000    0.64205007    0.91706002    0.61900000
opls_145-535    C    0.35832996    0.58265007    0.87828005    -0.11500000
opls_145-536    C    0.35622996    0.56118996    0.86104998    -0.11500000
opls_700-537    C    0.33472010    0.53268007    0.86501995    0.61900000
opls_145-538    C    0.31790000    0.54757006    0.90417993    -0.11500000
opls_727-539    C    0.31589997    0.52597004    0.88710993    0.20000000
opls_145-540    C    0.30185999    0.34250007    0.69022009    -0.11500000
opls_145-541    C    0.28005990    0.31404990    0.69046996    -0.11500000
opls_700-542    C    0.26411002    0.30137995    0.66689007    0.61900000
opls_145-543    C    0.27070991    0.31749993    0.64292996    -0.11500000
opls_145-544    C    0.29250995    0.34593006    0.64263996    -0.11500000
opls_700-545    C    0.69427000    0.35811991    0.05309009    0.61900000
opls_145-546    C    0.71764996    0.37934008    0.03899991    -0.11500000
opls_700-547    C    0.74094010    0.40058008    0.05371998    0.61900000
opls_145-548    C    0.76384997    0.44244008    0.02250991    -0.11500000
opls_700-549    C    0.76607007    0.42239999    0.03879993    0.61900000
opls_145-550    C    0.79288000    0.42506003    0.04322994    -0.11500000
opls_727-551    C    0.81746996    0.44849000    0.03295006    0.20000000
opls_700-552    C    0.81552990    0.46976989    0.01831003    0.61900000
opls_145-553    C    0.78845000    0.46610999    0.01247991    -0.11500000
opls_142-554    C    0.84174000    0.49662003    0.01154007    -0.11500000
opls_145-555    C    0.85939004    0.56830992    0.99037995    -0.11500000
opls_145-556    C    0.86422009    0.54765004    0.00237009    -0.11500000
opls_145-557    C    0.89135002    0.55595008    0.01322996    -0.11500000
opls_145-558    C    0.91307000    0.58439002    0.01202007    -0.11500000
opls_700-559    C    0.90815999    0.60513009    0.00012993    0.61900000
opls_727-560    C    0.88110002    0.59681000    0.98911996    0.20000000
opls_700-561    C    0.97485006    0.69341003    0.99959005    0.61900000
opls_145-562    C    0.90876009    0.59869007    0.29202993    -0.11500000
opls_700-563    C    0.92619009    0.59181006    0.30800999    0.61900000
opls_145-564    C    0.92496000    0.56555006    0.30289001    -0.11500000
opls_145-565    C    0.90886988    0.54804994    0.28140995    -0.11500000
opls_700-566    C    0.89261013    0.55569009    0.26493991    0.61900000
opls_145-567    C    0.89260003    0.58109994    0.27052992    -0.11500000
opls_727-568    C    0.85827008    0.50745001    0.24565990    0.20000000
opls_700-569    C    0.87556999    0.53709008    0.24207992    0.61900000
opls_145-570    C    0.87678003    0.54890989    0.21629001    -0.11500000
opls_145-571    C    0.86117001    0.53149999    0.19446009    -0.11500000
opls_145-572    C    0.84384999    0.50186994    0.19815004    -0.11500000
opls_145-573    C    0.84276005    0.49011006    0.22380004    -0.11500000
opls_142-574    C    0.82075995    0.48977009    0.15342999    -0.11500000
opls_700-575    C    0.76292001    0.42391002    0.09920006    0.61900000
opls_700-576    C    0.74023996    0.40069995    0.08273002    0.61900000
opls_145-577    C    0.71673001    0.37898006    0.09661003    -0.11500000
opls_700-578    C    0.69406993    0.35794993    0.08194006    0.61900000
opls_145-579    C    0.77567989    0.41734993    0.12072003    -0.11500000
opls_145-580    C    0.79503999    0.43881004    0.13795009    -0.11500000
opls_700-581    C    0.80204003    0.46731993    0.13397992    0.61900000
opls_145-582    C    0.77032994    0.45242994    0.09481994    -0.11500000
opls_727-583    C    0.78992993    0.47402996    0.11188994    0.20000000
opls_145-584    C    0.95935992    0.65749993    0.30877999    -0.11500000
opls_145-585    C    0.96600990    0.68594989    0.30852991    -0.11500000
opls_700-586    C    0.96273007    0.69862005    0.33211000    0.61900000
opls_145-587    C    0.95320998    0.68250007    0.35606991    -0.11500000
opls_145-588    C    0.94657989    0.65406994    0.35635991    -0.11500000
opls_701-589    C    0.66733001    0.33366001    0.62509994    -0.39500000
opls_701-590    C    0.66733001    0.33366001    0.57068999    -0.39500000
opls_700-591    C    0.64288012    0.33615006    0.05309009    0.61900000
opls_145-592    C    0.62166006    0.33830996    0.03899991    -0.11500000
opls_700-593    C    0.60042000    0.34036001    0.05371998    0.61900000
opls_145-594    C    0.55856001    0.32141001    0.02250991    -0.11500000
opls_700-595    C    0.57860003    0.34366992    0.03879993    0.61900000
opls_145-596    C    0.57593987    0.36781993    0.04322994    -0.11500000
opls_727-597    C    0.55251005    0.36897996    0.03295006    0.20000000
opls_700-598    C    0.53122998    0.34576007    0.01831003    0.61900000
opls_145-599    C    0.53488989    0.32233991    0.01247991    -0.11500000
opls_142-600    C    0.50437998    0.34512002    0.01154007    -0.11500000
opls_145-601    C    0.43268995    0.29107998    0.99037995    -0.11500000
opls_145-602    C    0.45335002    0.31657003    0.00237009    -0.11500000
opls_145-603    C    0.44504995    0.33539995    0.01322996    -0.11500000
opls_145-604    C    0.41660990    0.32867990    0.01202007    -0.11500000
opls_700-605    C    0.39587003    0.30302989    0.00012993    0.61900000
opls_727-606    C    0.40418998    0.28428997    0.98911996    0.20000000
opls_700-607    C    0.30759004    0.28143989    0.99959005    0.61900000
opls_145-608    C    0.40230997    0.31007008    0.29202993    -0.11500000
opls_700-609    C    0.40919010    0.33438004    0.30800999    0.61900000
opls_145-610    C    0.43545005    0.35941005    0.30289001    -0.11500000
opls_145-611    C    0.45295005    0.36082005    0.28140995    -0.11500000
opls_700-612    C    0.44530998    0.33692001    0.26493991    0.61900000
opls_145-613    C    0.41989987    0.31149991    0.27052992    -0.11500000
opls_727-614    C    0.49355001    0.35081995    0.24565990    0.20000000
opls_700-615    C    0.46390989    0.33847994    0.24207992    0.61900000
opls_145-616    C    0.45208998    0.32787007    0.21629001    -0.11500000
opls_145-617    C    0.46949993    0.32966995    0.19446009    -0.11500000
opls_145-618    C    0.49913011    0.34198010    0.19815004    -0.11500000
opls_145-619    C    0.51089003    0.35264990    0.22380004    -0.11500000
opls_142-620    C    0.51123000    0.33098995    0.15342999    -0.11500000
opls_700-621    C    0.57708995    0.33900995    0.09920006    0.61900000
opls_700-622    C    0.60029995    0.33953995    0.08273002    0.61900000
opls_145-623    C    0.62201996    0.33775010    0.09661003    -0.11500000
opls_700-624    C    0.64304997    0.33611999    0.08194006    0.61900000
opls_145-625    C    0.58365004    0.35832999    0.12072003    -0.11500000
opls_145-626    C    0.56218998    0.35623003    0.13795009    -0.11500000
opls_700-627    C    0.53368004    0.33472001    0.13397992    0.61900000
opls_145-628    C    0.54857006    0.31790005    0.09481994    -0.11500000
opls_727-629    C    0.52697002    0.31589990    0.11188994    0.20000000
opls_145-630    C    0.34350001    0.30186004    0.30877999    -0.11500000
opls_145-631    C    0.31505007    0.28005997    0.30852991    -0.11500000
opls_700-632    C    0.30238001    0.26410997    0.33211000    0.61900000
opls_145-633    C    0.31849994    0.27070995    0.35606991    -0.11500000
opls_145-634    C    0.34692993    0.29251002    0.35635991    -0.11500000
opls_700-635    C    0.66485000    0.30672989    0.05309009    0.61900000
opls_145-636    C    0.66269002    0.28335004    0.03899991    -0.11500000
opls_700-637    C    0.66063995    0.26005998    0.05371998    0.61900000
opls_145-638    C    0.67959007    0.23714999    0.02250991    -0.11500000
opls_700-639    C    0.65733003    0.23492995    0.03879993    0.61900000
opls_145-640    C    0.63317988    0.20811990    0.04322994    -0.11500000
opls_727-641    C    0.63201992    0.18352990    0.03295006    0.20000000
opls_700-642    C    0.65523987    0.18546990    0.01831003    0.61900000
opls_145-643    C    0.67866004    0.21254996    0.01247991    -0.11500000
opls_142-644    C    0.65588006    0.15926003    0.01154007    -0.11500000
opls_145-645    C    0.70991994    0.14160997    0.99037995    -0.11500000
opls_145-646    C    0.68442993    0.13678001    0.00237009    -0.11500000
opls_145-647    C    0.66560007    0.10965004    0.01322996    -0.11500000
opls_145-648    C    0.67232003    0.08792994    0.01202007    -0.11500000
opls_700-649    C    0.69797001    0.09284010    0.00012993    0.61900000
opls_727-650    C    0.71670993    0.11989989    0.98911996    0.20000000
opls_700-651    C    0.71956002    0.02614994    0.99959005    0.61900000
opls_145-652    C    0.69092998    0.09223992    0.29202993    -0.11500000
opls_700-653    C    0.66662004    0.07480997    0.30800999    0.61900000
opls_145-654    C    0.64158999    0.07603996    0.30289001    -0.11500000
opls_145-655    C    0.64018010    0.09213009    0.28140995    -0.11500000
opls_700-656    C    0.66407994    0.10838998    0.26493991    0.61900000
opls_145-657    C    0.68950003    0.10840000    0.27052992    -0.11500000
opls_727-658    C    0.65018002    0.14272991    0.24565990    0.20000000
opls_700-659    C    0.66251998    0.12543005    0.24207992    0.61900000
opls_145-660    C    0.67312992    0.12421990    0.21629001    -0.11500000
opls_145-661    C    0.67133000    0.13982993    0.19446009    -0.11500000
opls_145-662    C    0.65901994    0.15715004    0.19815004    -0.11500000
opls_145-663    C    0.64835004    0.15823990    0.22380004    -0.11500000
opls_142-664    C    0.67001008    0.18024004    0.15342999    -0.11500000
opls_700-665    C    0.66198997    0.23807989    0.09920006    0.61900000
opls_700-666    C    0.66146002    0.26075997    0.08273002    0.61900000
opls_145-667    C    0.66324988    0.28426992    0.09661003    -0.11500000
opls_700-668    C    0.66488003    0.30692994    0.08194006    0.61900000
opls_145-669    C    0.64267000    0.22531994    0.12072003    -0.11500000
opls_145-670    C    0.64477007    0.20596001    0.13795009    -0.11500000
opls_700-671    C    0.66628004    0.19895991    0.13397992    0.61900000
opls_145-672    C    0.68310004    0.23067009    0.09481994    -0.11500000
opls_727-673    C    0.68509998    0.21107000    0.11188994    0.20000000
opls_145-674    C    0.69914011    0.04164010    0.30877999    -0.11500000
opls_145-675    C    0.72093997    0.03499001    0.30852991    -0.11500000
opls_700-676    C    0.73688995    0.03827005    0.33211000    0.61900000
opls_145-677    C    0.73028994    0.04779006    0.35606991    -0.11500000
opls_145-678    C    0.70848993    0.05441989    0.35635991    -0.11500000
opls_700-679    C    0.00315007    0.97588007    0.27890994    0.61900000
opls_145-680    C    0.00530987    0.95465990    0.29299992    -0.11500000
opls_700-681    C    0.00736001    0.93341990    0.27828005    0.61900000
opls_145-682    C    0.98840988    0.89155990    0.30948992    -0.11500000
opls_700-683    C    0.01067006    0.91159998    0.29319990    0.61900000
opls_145-684    C    0.03481995    0.90893995    0.28877009    -0.11500000
opls_727-685    C    0.03597995    0.88550997    0.29904997    0.20000000
opls_700-686    C    0.01275990    0.86422988    0.31369001    0.61900000
opls_145-687    C    0.98934000    0.86788999    0.31951991    -0.11500000
opls_142-688    C    0.01211996    0.83737995    0.32045997    -0.11500000
opls_145-689    C    0.95808012    0.76569006    0.34162008    -0.11500000
opls_145-690    C    0.98357004    0.78634994    0.32962995    -0.11500000
opls_145-691    C    0.00239993    0.77804990    0.31877007    -0.11500000
opls_145-692    C    0.99567997    0.74960996    0.31997996    -0.11500000
opls_700-693    C    0.97002989    0.72886989    0.33186990    0.61900000
opls_727-694    C    0.95129001    0.73718998    0.34288007    0.20000000
opls_700-695    C    0.94844002    0.64058995    0.33240998    0.61900000
opls_145-696    C    0.97707001    0.73530991    0.03996990    -0.11500000
opls_700-697    C    0.00138002    0.74218992    0.02399005    0.61900000
opls_145-698    C    0.02640993    0.76844992    0.02911003    -0.11500000
opls_145-699    C    0.02781993    0.78595004    0.05059008    -0.11500000
opls_700-700    C    0.00392003    0.77830989    0.06705992    0.61900000
opls_145-701    C    0.97850008    0.75290003    0.06146991    -0.11500000
opls_727-702    C    0.01782006    0.82654997    0.08633993    0.20000000
opls_700-703    C    0.00547990    0.79690990    0.08991990    0.61900000
opls_145-704    C    0.99487003    0.78508988    0.11571002    -0.11500000
opls_145-705    C    0.99667001    0.80249999    0.13753994    -0.11500000
opls_145-706    C    0.00898004    0.83213004    0.13385000    -0.11500000
opls_145-707    C    0.01964998    0.84388992    0.10819999    -0.11500000
opls_142-708    C    0.99798985    0.84422989    0.17857005    -0.11500000
opls_700-709    C    0.00600998    0.91008996    0.23279997    0.61900000
opls_700-710    C    0.00654001    0.93330003    0.24927001    0.61900000
opls_145-711    C    0.00474994    0.95501992    0.23539000    -0.11500000
opls_700-712    C    0.00311999    0.97605005    0.25005998    0.61900000
opls_145-713    C    0.02532995    0.91665005    0.21128001    -0.11500000
opls_145-714    C    0.02322995    0.89518994    0.19404994    -0.11500000
opls_700-715    C    0.00172009    0.86668005    0.19801990    0.61900000
opls_145-716    C    0.98489999    0.88157004    0.23718009    -0.11500000
opls_727-717    C    0.98289996    0.85997002    0.22011009    0.20000000
opls_145-718    C    0.96885998    0.67650005    0.02322004    -0.11500000
opls_145-719    C    0.94705989    0.64804988    0.02346992    -0.11500000
opls_700-720    C    0.93111001    0.63537993    0.99989003    0.61900000
opls_145-721    C    0.93770990    0.65149991    0.97592992    -0.11500000
opls_145-722    C    0.95950994    0.67993004    0.97563992    -0.11500000
opls_701-723    C    0.00066999    0.00033997    0.70690009    -0.39500000
opls_701-724    C    0.00066999    0.00033997    0.76131004    -0.39500000
opls_700-725    C    0.97373005    0.99784992    0.27890994    0.61900000
opls_145-726    C    0.95035009    0.99569002    0.29299992    -0.11500000
opls_700-727    C    0.92705997    0.99363996    0.27828005    0.61900000
opls_145-728    C    0.90414999    0.01258997    0.30948992    -0.11500000
opls_700-729    C    0.90193010    0.99033006    0.29319990    0.61900000
opls_145-730    C    0.87511993    0.96618005    0.28877009    -0.11500000
opls_727-731    C    0.85053008    0.96502002    0.29904997    0.20000000
opls_700-732    C    0.85246989    0.98823991    0.31369001    0.61900000
opls_145-733    C    0.87954997    0.01166007    0.31951991    -0.11500000
opls_142-734    C    0.82625995    0.98887996    0.32045997    -0.11500000
opls_145-735    C    0.80860996    0.04292000    0.34162008    -0.11500000
opls_145-736    C    0.80377998    0.01742995    0.32962995    -0.11500000
opls_145-737    C    0.77664999    0.99860002    0.31877007    -0.11500000
opls_145-738    C    0.75492999    0.00532008    0.31997996    -0.11500000
opls_700-739    C    0.75984013    0.03097009    0.33186990    0.61900000
opls_727-740    C    0.78690000    0.04971001    0.34288007    0.20000000
opls_700-741    C    0.69315013    0.05256008    0.33240998    0.61900000
opls_145-742    C    0.75923988    0.02392990    0.03996990    -0.11500000
opls_700-743    C    0.74181004    0.99961993    0.02399005    0.61900000
opls_145-744    C    0.74303999    0.97458993    0.02911003    -0.11500000
opls_145-745    C    0.75913000    0.97317993    0.05059008    -0.11500000
opls_700-746    C    0.77538996    0.99707997    0.06705992    0.61900000
opls_145-747    C    0.77539995    0.02250007    0.06146991    -0.11500000
opls_727-748    C    0.80973006    0.98318003    0.08633993    0.20000000
opls_700-749    C    0.79242994    0.99552004    0.08991990    0.61900000
opls_145-750    C    0.79121990    0.00612991    0.11571002    -0.11500000
opls_145-751    C    0.80682997    0.00433003    0.13753994    -0.11500000
opls_145-752    C    0.82415000    0.99201988    0.13385000    -0.11500000
opls_145-753    C    0.82524012    0.98135008    0.10819999    -0.11500000
opls_142-754    C    0.84724005    0.00301003    0.17857005    -0.11500000
opls_700-755    C    0.90508000    0.99499003    0.23279997    0.61900000
opls_700-756    C    0.92775999    0.99446003    0.24927001    0.61900000
opls_145-757    C    0.95126985    0.99624988    0.23539000    -0.11500000
opls_700-758    C    0.97392997    0.99787999    0.25005998    0.61900000
opls_145-759    C    0.89232004    0.97566998    0.21128001    -0.11500000
opls_145-760    C    0.87295994    0.97776995    0.19404994    -0.11500000
opls_700-761    C    0.86596002    0.99927996    0.19801990    0.61900000
opls_145-762    C    0.89767001    0.01609993    0.23718009    -0.11500000
opls_727-763    C    0.87807012    0.01810008    0.22011009    0.20000000
opls_145-764    C    0.70863996    0.03213993    0.02322004    -0.11500000
opls_145-765    C    0.70199009    0.05394001    0.02346992    -0.11500000
opls_700-766    C    0.70527003    0.06989001    0.99989003    0.61900000
opls_145-767    C    0.71478998    0.06329003    0.97592992    -0.11500000
opls_145-768    C    0.72141990    0.04148995    0.97563992    -0.11500000
opls_700-769    C    0.02512011    0.02727009    0.27890994    0.61900000
opls_145-770    C    0.04633997    0.05064994    0.29299992    -0.11500000
opls_700-771    C    0.06757996    0.07394000    0.27828005    0.61900000
opls_145-772    C    0.10944007    0.09684999    0.30948992    -0.11500000
opls_700-773    C    0.08940007    0.09907003    0.29319990    0.61900000
opls_145-774    C    0.09205997    0.12588008    0.28877009    -0.11500000
opls_727-775    C    0.11549001    0.15047008    0.29904997    0.20000000
opls_700-776    C    0.13676996    0.14853008    0.31369001    0.61900000
opls_145-777    C    0.13311007    0.12145002    0.31951991    -0.11500000
opls_142-778    C    0.16362002    0.17473995    0.32045997    -0.11500000
opls_145-779    C    0.23530996    0.19239001    0.34162008    -0.11500000
opls_145-780    C    0.21464991    0.19721997    0.32962995    -0.11500000
opls_145-781    C    0.22295002    0.22434994    0.31877007    -0.11500000
opls_145-782    C    0.25139007    0.24607003    0.31997996    -0.11500000
opls_700-783    C    0.27213001    0.24116009    0.33186990    0.61900000
opls_727-784    C    0.26381003    0.21410008    0.34288007    0.20000000
opls_700-785    C    0.36041007    0.30785004    0.33240998    0.61900000
opls_145-786    C    0.26569005    0.24176005    0.03996990    -0.11500000
opls_700-787    C    0.25881006    0.25919001    0.02399005    0.61900000
opls_145-788    C    0.23255002    0.25796002    0.02911003    -0.11500000
opls_145-789    C    0.21505001    0.24186989    0.05059008    -0.11500000
opls_700-790    C    0.22268995    0.22561000    0.06705992    0.61900000
opls_145-791    C    0.24810002    0.22559998    0.06146991    -0.11500000
opls_727-792    C    0.17445011    0.19127007    0.08633993    0.20000000
opls_700-793    C    0.20408991    0.20856992    0.08991990    0.61900000
opls_145-794    C    0.21591001    0.20978008    0.11571002    -0.11500000
opls_145-795    C    0.19850006    0.19417005    0.13753994    -0.11500000
opls_145-796    C    0.16886989    0.17684994    0.13385000    -0.11500000
opls_145-797    C    0.15711012    0.17576007    0.10819999    -0.11500000
opls_142-798    C    0.15677003    0.15375994    0.17857005    -0.11500000
opls_700-799    C    0.09091007    0.09592009    0.23279997    0.61900000
opls_700-800    C    0.06770004    0.07324001    0.24927001    0.61900000
opls_145-801    C    0.04597996    0.04973006    0.23539000    -0.11500000
opls_700-802    C    0.02495007    0.02707003    0.25005998    0.61900000
opls_145-803    C    0.08435005    0.10868004    0.21128001    -0.11500000
opls_145-804    C    0.10581005    0.12803997    0.19404994    -0.11500000
opls_700-805    C    0.13432012    0.13504006    0.19801990    0.61900000
opls_145-806    C    0.11943005    0.10333010    0.23718009    -0.11500000
opls_727-807    C    0.14102997    0.12292998    0.22011009    0.20000000
opls_145-808    C    0.32450010    0.29236009    0.02322004    -0.11500000
opls_145-809    C    0.35294995    0.29900997    0.02346992    -0.11500000
opls_700-810    C    0.36561989    0.29572992    0.99989003    0.61900000
opls_145-811    C    0.34949987    0.28620992    0.97592992    -0.11500000
opls_145-812    C    0.32107002    0.27958008    0.97563992    -0.11500000
opls_750-813    N    0.34585005    0.49356009    0.33943002    -0.78500000
opls_750-814    N    0.32267002    0.50683000    0.51061997    -0.78500000
opls_750-815    N    0.50643993    0.85228999    0.33943002    -0.78500000
opls_750-816    N    0.49317010    0.81584007    0.51061997    -0.78500000
opls_750-817    N    0.14771002    0.65414992    0.33943002    -0.78500000
opls_750-818    N    0.18415988    0.67732993    0.51061997    -0.78500000
opls_750-819    N    0.49356010    0.34585008    0.66056998    -0.78500000
opls_750-820    N    0.50682995    0.32267007    0.48938003    -0.78500000
opls_750-821    N    0.85228996    0.50643991    0.66056998    -0.78500000
opls_750-822    N    0.81584002    0.49317000    0.48938003    -0.78500000
opls_750-823    N    0.65414995    0.14771001    0.66056998    -0.78500000
opls_750-824    N    0.67733003    0.18415993    0.48938003    -0.78500000
opls_750-825    N    0.01285000    0.82655999    0.67242998    -0.78500000
opls_750-826    N    0.98966998    0.83982990    0.84361993    -0.78500000
opls_750-827    N    0.17343989    0.18528989    0.67242998    -0.78500000
opls_750-828    N    0.16017005    0.14883998    0.84361993    -0.78500000
opls_750-829    N    0.81471008    0.98715004    0.67242998    -0.78500000
opls_750-830    N    0.85115994    0.01033005    0.84361993    -0.78500000
opls_750-831    N    0.16056005    0.67884998    0.99356993    -0.78500000
opls_750-832    N    0.17382990    0.65566998    0.82237998    -0.78500000
opls_750-833    N    0.51929002    0.83944003    0.99356993    -0.78500000
opls_750-834    N    0.48283998    0.82616990    0.82237998    -0.78500000
opls_750-835    N    0.32114990    0.48070992    0.99356993    -0.78500000
opls_750-836    N    0.34433009    0.51716005    0.82237998    -0.78500000
opls_750-837    N    0.84043998    0.51929008    0.00542994    -0.78500000
opls_750-838    N    0.82717004    0.48283995    0.17662009    -0.78500000
opls_750-839    N    0.48171007    0.32115002    0.00542994    -0.78500000
opls_750-840    N    0.51815993    0.34433002    0.17662009    -0.78500000
opls_750-841    N    0.67984999    0.16055997    0.00542994    -0.78500000
opls_750-842    N    0.65667007    0.17383010    0.17662009    -0.78500000
opls_750-843    N    0.98814989    0.81470990    0.32657010    -0.78500000
opls_750-844    N    0.01133008    0.85116002    0.15537994    -0.78500000
opls_750-845    N    0.82756004    0.01284996    0.32657010    -0.78500000
opls_750-846    N    0.84082989    0.98966995    0.15537994    -0.78500000
opls_750-847    N    0.18629001    0.17344001    0.32657010    -0.78500000
opls_750-848    N    0.14984007    0.16017010    0.15537994    -0.78500000
opls_719-849    F    0.40810009    0.45872002    0.31222006    -0.22000000
opls_719-850    F    0.50504010    0.36011004    0.27112010    -0.22000000
opls_719-851    F    0.45092006    0.84257995    0.96054004    -0.22000000
opls_719-852    F    0.50095999    0.79550993    0.89190998    -0.22000000
opls_719-853    F    0.54128003    0.94937992    0.31222006    -0.22000000
opls_719-854    F    0.63988990    0.14492990    0.27112010    -0.22000000
opls_719-855    F    0.15741999    0.60833996    0.96054004    -0.22000000
opls_719-856    F    0.20448994    0.70544994    0.89190998    -0.22000000
opls_719-857    F    0.05062006    0.59190006    0.31222006    -0.22000000
opls_719-858    F    0.85507000    0.49496007    0.27112010    -0.22000000
opls_719-859    F    0.39166013    0.54908009    0.96054004    -0.22000000
opls_719-860    F    0.29454996    0.49903992    0.89190998    -0.22000000
opls_719-861    F    0.45872000    0.40809994    0.68777994    -0.22000000
opls_719-862    F    0.36010993    0.50503993    0.72887990    -0.22000000
opls_719-863    F    0.84258005    0.45091991    0.03945996    -0.22000000
opls_719-864    F    0.79551005    0.50096008    0.10809002    -0.22000000
opls_719-865    F    0.94938007    0.54127998    0.68777994    -0.22000000
opls_719-866    F    0.14493007    0.63988996    0.72887990    -0.22000000
opls_719-867    F    0.60834011    0.15742005    0.03945996    -0.22000000
opls_719-868    F    0.70545007    0.20449007    0.10809002    -0.22000000
opls_719-869    F    0.59190012    0.05062008    0.68777994    -0.22000000
opls_719-870    F    0.49495989    0.85506989    0.72887990    -0.22000000
opls_719-871    F    0.54908002    0.39166004    0.03945996    -0.22000000
opls_719-872    F    0.49903999    0.29455006    0.10809002    -0.22000000
opls_719-873    F    0.07510004    0.79171992    0.64522001    -0.22000000
opls_719-874    F    0.17204006    0.69310994    0.60412006    -0.22000000
opls_719-875    F    0.11792012    0.17558007    0.29354000    -0.22000000
opls_719-876    F    0.16796005    0.12851004    0.22490994    -0.22000000
opls_719-877    F    0.20828009    0.28238004    0.64522001    -0.22000000
opls_719-878    F    0.30688996    0.47793002    0.60412006    -0.22000000
opls_719-879    F    0.82441994    0.94133987    0.29354000    -0.22000000
opls_719-880    F    0.87149000    0.03845006    0.22490994    -0.22000000
opls_719-881    F    0.71762001    0.92489997    0.64522001    -0.22000000
opls_719-882    F    0.52206995    0.82795997    0.60412006    -0.22000000
opls_719-883    F    0.05866009    0.88207999    0.29354000    -0.22000000
opls_719-884    F    0.96155002    0.83204003    0.22490994    -0.22000000
opls_719-885    F    0.12572006    0.74110006    0.02077990    -0.22000000
opls_719-886    F    0.02710999    0.83804005    0.06188006    -0.22000000
opls_719-887    F    0.50958011    0.78392003    0.37245992    -0.22000000
opls_719-888    F    0.46251000    0.83395999    0.44108998    -0.22000000
opls_719-889    F    0.61638002    0.87427988    0.02077990    -0.22000000
opls_719-890    F    0.81193002    0.97288987    0.06188006    -0.22000000
opls_719-891    F    0.27534007    0.49041996    0.37245992    -0.22000000
opls_719-892    F    0.37245002    0.53748998    0.44108998    -0.22000000
opls_719-893    F    0.25890007    0.38361999    0.02077990    -0.22000000
opls_719-894    F    0.16195995    0.18807001    0.06188006    -0.22000000
opls_719-895    F    0.21607998    0.72465994    0.37245992    -0.22000000
opls_719-896    F    0.16603995    0.62754996    0.44108998    -0.22000000
opls_719-897    F    0.87528008    0.61638001    0.97821997    -0.22000000
opls_719-898    F    0.97388995    0.81192999    0.93712001    -0.22000000
opls_719-899    F    0.49142004    0.27534006    0.62653996    -0.22000000
opls_719-900    F    0.53848999    0.37245004    0.55791010    -0.22000000
opls_719-901    F    0.38462000    0.25889994    0.97821997    -0.22000000
opls_719-902    F    0.18906994    0.16195995    0.93712001    -0.22000000
opls_719-903    F    0.72566008    0.21607997    0.62653996    -0.22000000
opls_719-904    F    0.62855001    0.16604001    0.55791010    -0.22000000
opls_719-905    F    0.74210003    0.12571990    0.97821997    -0.22000000
opls_719-906    F    0.83904005    0.02710992    0.93712001    -0.22000000
opls_719-907    F    0.78492011    0.50958004    0.62653996    -0.22000000
opls_719-908    F    0.83496004    0.46251002    0.55791010    -0.22000000
opls_719-909    F    0.92590006    0.71761996    0.35378006    -0.22000000
opls_719-910    F    0.82895994    0.52206998    0.39488002    -0.22000000
opls_719-911    F    0.88307997    0.05865992    0.70546008    -0.22000000
opls_719-912    F    0.83303993    0.96154994    0.77408994    -0.22000000
opls_719-913    F    0.79272005    0.07510003    0.35378006    -0.22000000
opls_719-914    F    0.69410998    0.17204003    0.39488002    -0.22000000
opls_719-915    F    0.17658010    0.11792001    0.70546008    -0.22000000
opls_719-916    F    0.12950999    0.16795997    0.77408994    -0.22000000
opls_719-917    F    0.28338012    0.20828008    0.35378006    -0.22000000
opls_719-918    F    0.47893012    0.30689006    0.39488002    -0.22000000
opls_719-919    F    0.94234006    0.82441993    0.70546008    -0.22000000
opls_719-920    F    0.03945001    0.87148996    0.77408994    -0.22000000
opls_146-921    H    0.32829998    0.61612002    0.35094993    0.11500000
opls_146-922    H    0.36435996    0.59073000    0.35293002    0.11500000
opls_146-923    H    0.28177996    0.53920006    0.38968998    0.11500000
opls_146-924    H    0.36273003    0.54767990    0.33504990    0.11500000
opls_144-925    H    0.30251998    0.47193000    0.34780006    0.11500000
opls_146-926    H    0.39086002    0.49553998    0.31646006    0.11500000
opls_146-927    H    0.31212996    0.43821008    0.35745005    0.11500000
opls_146-928    H    0.32353990    0.40026997    0.35458000    0.11500000
opls_146-929    H    0.37733000    0.42699001    0.63029996    0.11500000
opls_146-930    H    0.28884996    0.39711000    0.64946002    0.11500000
opls_146-931    H    0.28625993    0.42466994    0.61156003    0.11500000
opls_146-932    H    0.37448000    0.45443009    0.59257001    0.11500000
opls_146-933    H    0.34840995    0.44377991    0.54694005    0.11500000
opls_146-934    H    0.34518999    0.47082990    0.50884007    0.11500000
opls_146-935    H    0.30486997    0.50451995    0.56091007    0.11500000
opls_144-936    H    0.35137004    0.50663997    0.48280007    0.11500000
opls_146-937    H    0.33007000    0.61824004    0.45264003    0.11500000
opls_146-938    H    0.29223004    0.56376000    0.45844997    0.11500000
opls_146-939    H    0.29580996    0.52983000    0.48865992    0.11500000
opls_146-940    H    0.36460010    0.57373002    0.41266992    0.11500000
opls_146-941    H    0.35279998    0.37120000    0.62439002    0.11500000
opls_146-942    H    0.39135007    0.36029004    0.62383996    0.11500000
opls_146-943    H    0.40753001    0.38235992    0.70881991    0.11500000
opls_146-944    H    0.36930002    0.39323000    0.70970008    0.11500000
opls_702-945    H    0.33332998    0.66666994    0.98173009    0.17400000
opls_702-946    H    0.33332998    0.66666994    0.88205003    0.17400000
opls_146-947    H    0.38388005    0.71218002    0.35094993    0.11500000
opls_146-948    H    0.40927001    0.77363008    0.35293002    0.11500000
opls_146-949    H    0.46079996    0.74258001    0.38968998    0.11500000
opls_146-950    H    0.45232010    0.81505008    0.33504990    0.11500000
opls_144-951    H    0.52807002    0.83058994    0.34780006    0.11500000
opls_146-952    H    0.50446009    0.89532004    0.31646006    0.11500000
opls_146-953    H    0.56178997    0.87392008    0.35745005    0.11500000
opls_146-954    H    0.59973005    0.92327007    0.35458000    0.11500000
opls_146-955    H    0.57300999    0.95033990    0.63029996    0.11500000
opls_146-956    H    0.60289001    0.89173991    0.64946002    0.11500000
opls_146-957    H    0.57532993    0.86158989    0.61156003    0.11500000
opls_146-958    H    0.54557002    0.92004996    0.59257001    0.11500000
opls_146-959    H    0.55622005    0.90462997    0.54694005    0.11500000
opls_146-960    H    0.52917005    0.87436008    0.50884007    0.11500000
opls_146-961    H    0.49547990    0.80034991    0.56091007    0.11500000
opls_144-962    H    0.49335998    0.84473003    0.48280007    0.11500000
opls_146-963    H    0.38176009    0.71183003    0.45264003    0.11500000
opls_146-964    H    0.43623993    0.72846999    0.45844997    0.11500000
opls_146-965    H    0.47017002    0.76597991    0.48865992    0.11500000
opls_146-966    H    0.42626993    0.79087000    0.41266992    0.11500000
opls_146-967    H    0.62880009    0.98160005    0.62439002    0.11500000
opls_146-968    H    0.63971000    0.03106009    0.62383996    0.11500000
opls_146-969    H    0.61764001    0.02516992    0.70881991    0.11500000
opls_146-970    H    0.60676992    0.97606989    0.70970008    0.11500000
opls_146-971    H    0.28781997    0.67169995    0.35094993    0.11500000
opls_146-972    H    0.22637003    0.63563992    0.35293002    0.11500000
opls_146-973    H    0.25741990    0.71821992    0.38968998    0.11500000
opls_146-974    H    0.18495006    0.63727002    0.33504990    0.11500000
opls_144-975    H    0.16941000    0.69748007    0.34780006    0.11500000
opls_146-976    H    0.10468008    0.60913998    0.31646006    0.11500000
opls_146-977    H    0.12607999    0.68787006    0.35745005    0.11500000
opls_146-978    H    0.07673005    0.67645996    0.35458000    0.11500000
opls_146-979    H    0.04965991    0.62266988    0.63029996    0.11500000
opls_146-980    H    0.10825993    0.71114988    0.64946002    0.11500000
opls_146-981    H    0.13841003    0.71373996    0.61156003    0.11500000
opls_146-982    H    0.07994998    0.62551995    0.59257001    0.11500000
opls_146-983    H    0.09536989    0.65158991    0.54694005    0.11500000
opls_146-984    H    0.12563996    0.65481003    0.50884007    0.11500000
opls_146-985    H    0.19965002    0.69512992    0.56091007    0.11500000
opls_144-986    H    0.15526999    0.64863000    0.48280007    0.11500000
opls_146-987    H    0.28816991    0.66992994    0.45264003    0.11500000
opls_146-988    H    0.27153003    0.70777001    0.45844997    0.11500000
opls_146-989    H    0.23401992    0.70418988    0.48865992    0.11500000
opls_146-990    H    0.20912997    0.63539998    0.41266992    0.11500000
opls_146-991    H    0.01839993    0.64719995    0.62439002    0.11500000
opls_146-992    H    0.96894004    0.60865007    0.62383996    0.11500000
opls_146-993    H    0.97483006    0.59246995    0.70881991    0.11500000
opls_146-994    H    0.02392995    0.63069990    0.70970008    0.11500000
opls_146-995    H    0.61612001    0.32830005    0.64905007    0.11500000
opls_146-996    H    0.59073011    0.36436008    0.64706998    0.11500000
opls_146-997    H    0.53919997    0.28178008    0.61031002    0.11500000
opls_146-998    H    0.54768004    0.36272998    0.66495010    0.11500000
opls_144-999    H    0.47192994    0.30251993    0.65219994    0.11500000
opls_146-1000    H    0.49554009    0.39086002    0.68353994    0.11500000
opls_146-1001    H    0.43820993    0.31212994    0.64254995    0.11500000
opls_146-1002    H    0.40027009    0.32354004    0.64542000    0.11500000
opls_146-1003    H    0.42698992    0.37732991    0.36970004    0.11500000
opls_146-1004    H    0.39710994    0.28884991    0.35053998    0.11500000
opls_146-1005    H    0.42467007    0.28626004    0.38843997    0.11500000
opls_146-1006    H    0.45443003    0.37448005    0.40742999    0.11500000
opls_146-1007    H    0.44377998    0.34841009    0.45305995    0.11500000
opls_146-1008    H    0.47082993    0.34518997    0.49115993    0.11500000
opls_146-1009    H    0.50452010    0.30487008    0.43908993    0.11500000
opls_144-1010    H    0.50663999    0.35137000    0.51719993    0.11500000
opls_146-1011    H    0.61823997    0.33007006    0.54735997    0.11500000
opls_146-1012    H    0.56376002    0.29222999    0.54155003    0.11500000
opls_146-1013    H    0.52982993    0.29580991    0.51134008    0.11500000
opls_146-1014    H    0.57372999    0.36460002    0.58733008    0.11500000
opls_146-1015    H    0.37119998    0.35280005    0.37560998    0.11500000
opls_146-1016    H    0.36028997    0.39134993    0.37616004    0.11500000
opls_146-1017    H    0.38236011    0.40753005    0.29118009    0.11500000
opls_146-1018    H    0.39323004    0.36930010    0.29029992    0.11500000
opls_702-1019    H    0.66667002    0.33333006    0.01826991    0.17400000
opls_702-1020    H    0.66667002    0.33333006    0.11794997    0.17400000
opls_146-1021    H    0.71217996    0.38387998    0.64905007    0.11500000
opls_146-1022    H    0.77362995    0.40927000    0.64706998    0.11500000
opls_146-1023    H    0.74257989    0.46079994    0.61031002    0.11500000
opls_146-1024    H    0.81505002    0.45231989    0.66495010    0.11500000
opls_144-1025    H    0.83058998    0.52807000    0.65219994    0.11500000
opls_146-1026    H    0.89532004    0.50446002    0.68353994    0.11500000
opls_146-1027    H    0.87391988    0.56178992    0.64254995    0.11500000
opls_146-1028    H    0.92326993    0.59973003    0.64542000    0.11500000
opls_146-1029    H    0.95033998    0.57300999    0.36970004    0.11500000
opls_146-1030    H    0.89173996    0.60289000    0.35053998    0.11500000
opls_146-1031    H    0.86158999    0.57533006    0.38843997    0.11500000
opls_146-1032    H    0.92004991    0.54556991    0.40742999    0.11500000
opls_146-1033    H    0.90463004    0.55622009    0.45305995    0.11500000
opls_146-1034    H    0.87435999    0.52916989    0.49115993    0.11500000
opls_146-1035    H    0.80035002    0.49548005    0.43908993    0.11500000
opls_144-1036    H    0.84473007    0.49336003    0.51719993    0.11500000
opls_146-1037    H    0.71182997    0.38175996    0.54735997    0.11500000
opls_146-1038    H    0.72847004    0.43624000    0.54155003    0.11500000
opls_146-1039    H    0.76597996    0.47017000    0.51134008    0.11500000
opls_146-1040    H    0.79087008    0.42626998    0.58733008    0.11500000
opls_146-1041    H    0.98159998    0.62880000    0.37560998    0.11500000
opls_146-1042    H    0.03106002    0.63970996    0.37616004    0.11500000
opls_146-1043    H    0.02517009    0.61764008    0.29118009    0.11500000
opls_146-1044    H    0.97607003    0.60677000    0.29029992    0.11500000
opls_146-1045    H    0.67170003    0.28781998    0.64905007    0.11500000
opls_146-1046    H    0.63563993    0.22636992    0.64706998    0.11500000
opls_146-1047    H    0.71821995    0.25741999    0.61031002    0.11500000
opls_146-1048    H    0.63727002    0.18494992    0.66495010    0.11500000
opls_144-1049    H    0.69748008    0.16941006    0.65219994    0.11500000
opls_146-1050    H    0.60914005    0.10467996    0.68353994    0.11500000
opls_146-1051    H    0.68786989    0.12607992    0.64254995    0.11500000
opls_146-1052    H    0.67645997    0.07672993    0.64542000    0.11500000
opls_146-1053    H    0.62267009    0.04966010    0.36970004    0.11500000
opls_146-1054    H    0.71115010    0.10826009    0.35053998    0.11500000
opls_146-1055    H    0.71373994    0.13840990    0.38843997    0.11500000
opls_146-1056    H    0.62552006    0.07995004    0.40742999    0.11500000
opls_146-1057    H    0.65159009    0.09537003    0.45305995    0.11500000
opls_146-1058    H    0.65480997    0.12563992    0.49115993    0.11500000
opls_146-1059    H    0.69512999    0.19965009    0.43908993    0.11500000
opls_144-1060    H    0.64862994    0.15526997    0.51719993    0.11500000
opls_146-1061    H    0.66993006    0.28816997    0.54735997    0.11500000
opls_146-1062    H    0.70776994    0.27153001    0.54155003    0.11500000
opls_146-1063    H    0.70419011    0.23402009    0.51134008    0.11500000
opls_146-1064    H    0.63539993    0.20913000    0.58733008    0.11500000
opls_146-1065    H    0.64720005    0.01839995    0.37560998    0.11500000
opls_146-1066    H    0.60864990    0.96893991    0.37616004    0.11500000
opls_146-1067    H    0.59246999    0.97482987    0.29118009    0.11500000
opls_146-1068    H    0.63069993    0.02392990    0.29029992    0.11500000
opls_146-1069    H    0.99529994    0.94911993    0.68395009    0.11500000
opls_146-1070    H    0.03135991    0.92372991    0.68592998    0.11500000
opls_146-1071    H    0.94877991    0.87219997    0.72268994    0.11500000
opls_146-1072    H    0.02973009    0.88068002    0.66805007    0.11500000
opls_144-1073    H    0.96951993    0.80492990    0.68080002    0.11500000
opls_146-1074    H    0.05785997    0.82853988    0.64946002    0.11500000
opls_146-1075    H    0.97912991    0.77120998    0.69045001    0.11500000
opls_146-1076    H    0.99053986    0.73326988    0.68757996    0.11500000
opls_146-1077    H    0.04432995    0.75998992    0.96329991    0.11500000
opls_146-1078    H    0.95584991    0.73010991    0.98245998    0.11500000
opls_146-1079    H    0.95325999    0.75767006    0.94455998    0.11500000
opls_146-1080    H    0.04147995    0.78742999    0.92556997    0.11500000
opls_146-1081    H    0.01541001    0.77678003    0.87994000    0.11500000
opls_146-1082    H    0.01219005    0.80383001    0.84184002    0.11500000
opls_146-1083    H    0.97187003    0.83752007    0.89391003    0.11500000
opls_144-1084    H    0.01837009    0.83964008    0.81580003    0.11500000
opls_146-1085    H    0.99706995    0.95123994    0.78563998    0.11500000
opls_146-1086    H    0.95922999    0.89675990    0.79144993    0.11500000
opls_146-1087    H    0.96280991    0.86282990    0.82166008    0.11500000
opls_146-1088    H    0.03160006    0.90672993    0.74567008    0.11500000
opls_146-1089    H    0.01979993    0.70419991    0.95738997    0.11500000
opls_146-1090    H    0.05835002    0.69328995    0.95683991    0.11500000
opls_146-1091    H    0.07453007    0.71536004    0.04182007    0.11500000
opls_146-1092    H    0.03629998    0.72622990    0.04270004    0.11500000
opls_702-1093    H    0.00033004    0.99967005    0.31473005    0.17400000
opls_702-1094    H    0.00033004    0.99967005    0.21504999    0.17400000
opls_146-1095    H    0.05088000    0.04517993    0.68395009    0.11500000
opls_146-1096    H    0.07626997    0.10662999    0.68592998    0.11500000
opls_146-1097    H    0.12779991    0.07557992    0.72268994    0.11500000
opls_146-1098    H    0.11932005    0.14804998    0.66805007    0.11500000
opls_144-1099    H    0.19507008    0.16359005    0.68080002    0.11500000
opls_146-1100    H    0.17146004    0.22831995    0.64946002    0.11500000
opls_146-1101    H    0.22878992    0.20691998    0.69045001    0.11500000
opls_146-1102    H    0.26673000    0.25626998    0.68757996    0.11500000
opls_146-1103    H    0.24001005    0.28334001    0.96329991    0.11500000
opls_146-1104    H    0.26989007    0.22474003    0.98245998    0.11500000
opls_146-1105    H    0.24232999    0.19459000    0.94455998    0.11500000
opls_146-1106    H    0.21257008    0.25305008    0.92556997    0.11500000
opls_146-1107    H    0.22322011    0.23763008    0.87994000    0.11500000
opls_146-1108    H    0.19617000    0.20735998    0.84184002    0.11500000
opls_146-1109    H    0.16247996    0.13335003    0.89391003    0.11500000
opls_144-1110    H    0.16035993    0.17772994    0.81580003    0.11500000
opls_146-1111    H    0.04876005    0.04482993    0.78563998    0.11500000
opls_146-1112    H    0.10323988    0.06146989    0.79144993    0.11500000
opls_146-1113    H    0.13717008    0.09898003    0.82166008    0.11500000
opls_146-1114    H    0.09326988    0.12386990    0.74567008    0.11500000
opls_146-1115    H    0.29580005    0.31459995    0.95738997    0.11500000
opls_146-1116    H    0.30670995    0.36406000    0.95683991    0.11500000
opls_146-1117    H    0.28464007    0.35817003    0.04182007    0.11500000
opls_146-1118    H    0.27376998    0.30907000    0.04270004    0.11500000
opls_146-1119    H    0.95482003    0.00470007    0.68395009    0.11500000
opls_146-1120    H    0.89337009    0.96864003    0.68592998    0.11500000
opls_146-1121    H    0.92441996    0.05122004    0.72268994    0.11500000
opls_146-1122    H    0.85195001    0.97026993    0.66805007    0.11500000
opls_144-1123    H    0.83640995    0.03047997    0.68080002    0.11500000
opls_146-1124    H    0.77168003    0.94213989    0.64946002    0.11500000
opls_146-1125    H    0.79307994    0.02086996    0.69045001    0.11500000
opls_146-1126    H    0.74373011    0.00946007    0.68757996    0.11500000
opls_146-1127    H    0.71665997    0.95567000    0.96329991    0.11500000
opls_146-1128    H    0.77525999    0.04414999    0.98245998    0.11500000
opls_146-1129    H    0.80541009    0.04674008    0.94455998    0.11500000
opls_146-1130    H    0.74695004    0.95852007    0.92556997    0.11500000
opls_146-1131    H    0.76236995    0.98459003    0.87994000    0.11500000
opls_146-1132    H    0.79263991    0.98780993    0.84184002    0.11500000
opls_146-1133    H    0.86665008    0.02813004    0.89391003    0.11500000
opls_144-1134    H    0.82226994    0.98162991    0.81580003    0.11500000
opls_146-1135    H    0.95516996    0.00293005    0.78563998    0.11500000
opls_146-1136    H    0.93852999    0.04076992    0.79144993    0.11500000
opls_146-1137    H    0.90101998    0.03719000    0.82166008    0.11500000
opls_146-1138    H    0.87612992    0.96839988    0.74567008    0.11500000
opls_146-1139    H    0.68539999    0.98020007    0.95738997    0.11500000
opls_146-1140    H    0.63594000    0.94164998    0.95683991    0.11500000
opls_146-1141    H    0.64183012    0.92547007    0.04182007    0.11500000
opls_146-1142    H    0.69093001    0.96370002    0.04270004    0.11500000
opls_146-1143    H    0.28311997    0.66129995    0.98205003    0.11500000
opls_146-1144    H    0.25773007    0.69735999    0.98006993    0.11500000
opls_146-1145    H    0.20619993    0.61477998    0.94330997    0.11500000
opls_146-1146    H    0.21467999    0.69572988    0.99795005    0.11500000
opls_144-1147    H    0.13893000    0.63552005    0.98520010    0.11500000
opls_146-1148    H    0.16254005    0.72385992    0.01654010    0.11500000
opls_146-1149    H    0.10520999    0.64513006    0.97554991    0.11500000
opls_146-1150    H    0.06727005    0.65653995    0.97841996    0.11500000
opls_146-1151    H    0.09398998    0.71033002    0.70270000    0.11500000
opls_146-1152    H    0.06411000    0.62185003    0.68353994    0.11500000
opls_146-1153    H    0.09167002    0.61925995    0.72143993    0.11500000
opls_146-1154    H    0.12142998    0.70747995    0.74042995    0.11500000
opls_146-1155    H    0.11077993    0.68140999    0.78605991    0.11500000
opls_146-1156    H    0.13782988    0.67818988    0.82416009    0.11500000
opls_146-1157    H    0.17152005    0.63786998    0.77209009    0.11500000
opls_144-1158    H    0.17363994    0.68436990    0.85020009    0.11500000
opls_146-1159    H    0.28523992    0.66306997    0.88035993    0.11500000
opls_146-1160    H    0.23075997    0.62522989    0.87454998    0.11500000
opls_146-1161    H    0.19682999    0.62881002    0.84434004    0.11500000
opls_146-1162    H    0.24072995    0.69759993    0.92033004    0.11500000
opls_146-1163    H    0.03819993    0.68579995    0.70860994    0.11500000
opls_146-1164    H    0.02729003    0.72435004    0.70916000    0.11500000
opls_146-1165    H    0.04936006    0.74052996    0.62418005    0.11500000
opls_146-1166    H    0.06022999    0.70230000    0.62330008    0.11500000
opls_702-1167    H    0.33366997    0.66632997    0.35127007    0.17400000
opls_702-1168    H    0.33366997    0.66632997    0.45094993    0.17400000
opls_146-1169    H    0.37917991    0.71687988    0.98205003    0.11500000
opls_146-1170    H    0.44062991    0.74226990    0.98006993    0.11500000
opls_146-1171    H    0.40957995    0.79380005    0.94330997    0.11500000
opls_146-1172    H    0.48205008    0.78532001    0.99795005    0.11500000
opls_144-1173    H    0.49758993    0.86106991    0.98520010    0.11500000
opls_146-1174    H    0.56232000    0.83745993    0.01654010    0.11500000
opls_146-1175    H    0.54091994    0.89479004    0.97554991    0.11500000
opls_146-1176    H    0.59026989    0.93272993    0.97841996    0.11500000
opls_146-1177    H    0.61733994    0.90600989    0.70270000    0.11500000
opls_146-1178    H    0.55873991    0.93588990    0.68353994    0.11500000
opls_146-1179    H    0.52858994    0.90832996    0.72143993    0.11500000
opls_146-1180    H    0.58704997    0.87857003    0.74042995    0.11500000
opls_146-1181    H    0.57163000    0.88922000    0.78605991    0.11500000
opls_146-1182    H    0.54136005    0.86217001    0.82416009    0.11500000
opls_146-1183    H    0.46734997    0.82847995    0.77209009    0.11500000
opls_144-1184    H    0.51173002    0.82635994    0.85020009    0.11500000
opls_146-1185    H    0.37883002    0.71476008    0.88035993    0.11500000
opls_146-1186    H    0.39546999    0.76923991    0.87454998    0.11500000
opls_146-1187    H    0.43297991    0.80316991    0.84434004    0.11500000
opls_146-1188    H    0.45787003    0.75926988    0.92033004    0.11500000
opls_146-1189    H    0.64859993    0.96179990    0.70860994    0.11500000
opls_146-1190    H    0.69806008    0.97271007    0.70916000    0.11500000
opls_146-1191    H    0.69217004    0.95063998    0.62418005    0.11500000
opls_146-1192    H    0.64306998    0.93976991    0.62330008    0.11500000
opls_146-1193    H    0.33869998    0.62081988    0.98205003    0.11500000
opls_146-1194    H    0.30263999    0.55937004    0.98006993    0.11500000
opls_146-1195    H    0.38521990    0.59041989    0.94330997    0.11500000
opls_146-1196    H    0.30427008    0.51795004    0.99795005    0.11500000
opls_144-1197    H    0.36448004    0.50240997    0.98520010    0.11500000
opls_146-1198    H    0.27614011    0.43768008    0.01654010    0.11500000
opls_146-1199    H    0.35486995    0.45908004    0.97554991    0.11500000
opls_146-1200    H    0.34346003    0.40973004    0.97841996    0.11500000
opls_146-1201    H    0.28967005    0.38266001    0.70270000    0.11500000
opls_146-1202    H    0.37815005    0.44126000    0.68353994    0.11500000
opls_146-1203    H    0.38074000    0.47141002    0.72143993    0.11500000
opls_146-1204    H    0.29252002    0.41294995    0.74042995    0.11500000
opls_146-1205    H    0.31859004    0.42836994    0.78605991    0.11500000
opls_146-1206    H    0.32181003    0.45864004    0.82416009    0.11500000
opls_146-1207    H    0.36212994    0.53265000    0.77209009    0.11500000
opls_144-1208    H    0.31563000    0.48827009    0.85020009    0.11500000
opls_146-1209    H    0.33693012    0.62117009    0.88035993    0.11500000
opls_146-1210    H    0.37476989    0.60452992    0.87454998    0.11500000
opls_146-1211    H    0.37119006    0.56701999    0.84434004    0.11500000
opls_146-1212    H    0.30239988    0.54212990    0.92033004    0.11500000
opls_146-1213    H    0.31420011    0.35140007    0.70860994    0.11500000
opls_146-1214    H    0.27564996    0.30194002    0.70916000    0.11500000
opls_146-1215    H    0.25947005    0.30782999    0.62418005    0.11500000
opls_146-1216    H    0.29769999    0.35693002    0.62330008    0.11500000
opls_146-1217    H    0.71787999    0.37917991    0.01695005    0.11500000
opls_146-1218    H    0.74326996    0.44062996    0.01892994    0.11500000
opls_146-1219    H    0.79479990    0.40957989    0.05569010    0.11500000
opls_146-1220    H    0.78632004    0.48204996    0.00105002    0.11500000
opls_144-1221    H    0.86207007    0.49759003    0.01379998    0.11500000
opls_146-1222    H    0.83846003    0.56231992    0.98245998    0.11500000
opls_146-1223    H    0.89578991    0.54091996    0.02344996    0.11500000
opls_146-1224    H    0.93372999    0.59026996    0.02057992    0.11500000
opls_146-1225    H    0.90701004    0.61733999    0.29630008    0.11500000
opls_146-1226    H    0.93689006    0.55874000    0.31545993    0.11500000
opls_146-1227    H    0.90932998    0.52858998    0.27755994    0.11500000
opls_146-1228    H    0.87957007    0.58705005    0.25856992    0.11500000
opls_146-1229    H    0.89022010    0.57163006    0.21293996    0.11500000
opls_146-1230    H    0.86316999    0.54135996    0.17483998    0.11500000
opls_146-1231    H    0.82947994    0.46735000    0.22690999    0.11500000
opls_144-1232    H    0.82735992    0.51172991    0.14879999    0.11500000
opls_146-1233    H    0.71576004    0.37882991    0.11863994    0.11500000
opls_146-1234    H    0.77023998    0.39547008    0.12445009    0.11500000
opls_146-1235    H    0.80417007    0.43298001    0.15466004    0.11500000
opls_146-1236    H    0.76026987    0.45786988    0.07867004    0.11500000
opls_146-1237    H    0.96280004    0.64859993    0.29038993    0.11500000
opls_146-1238    H    0.97370994    0.69805998    0.28984007    0.11500000
opls_146-1239    H    0.95164006    0.69217001    0.37482002    0.11500000
opls_146-1240    H    0.94076997    0.64306998    0.37570000    0.11500000
opls_702-1241    H    0.66733001    0.33366001    0.64773001    0.17400000
opls_702-1242    H    0.66733001    0.33366001    0.54804994    0.17400000
opls_146-1243    H    0.62182001    0.33870005    0.01695005    0.11500000
opls_146-1244    H    0.56037008    0.30264001    0.01892994    0.11500000
opls_146-1245    H    0.59141994    0.38522002    0.05569010    0.11500000
opls_146-1246    H    0.51895000    0.30426990    0.00105002    0.11500000
opls_144-1247    H    0.50340994    0.36447995    0.01379998    0.11500000
opls_146-1248    H    0.43868012    0.27614008    0.98245998    0.11500000
opls_146-1249    H    0.46007993    0.35486994    0.02344996    0.11500000
opls_146-1250    H    0.41073010    0.34346005    0.02057992    0.11500000
opls_146-1251    H    0.38365996    0.28966998    0.29630008    0.11500000
opls_146-1252    H    0.44225998    0.37814997    0.31545993    0.11500000
opls_146-1253    H    0.47241008    0.38074005    0.27755994    0.11500000
opls_146-1254    H    0.41395003    0.29252005    0.25856992    0.11500000
opls_146-1255    H    0.42936994    0.31859001    0.21293996    0.11500000
opls_146-1256    H    0.45963990    0.32180991    0.17483998    0.11500000
opls_146-1257    H    0.53365007    0.36213002    0.22690999    0.11500000
opls_144-1258    H    0.48927004    0.31563010    0.14879999    0.11500000
opls_146-1259    H    0.62216995    0.33693003    0.11863994    0.11500000
opls_146-1260    H    0.60552998    0.37476990    0.12445009    0.11500000
opls_146-1261    H    0.56801997    0.37118998    0.15466004    0.11500000
opls_146-1262    H    0.54313002    0.30240007    0.07867004    0.11500000
opls_146-1263    H    0.35239998    0.31420005    0.29038993    0.11500000
opls_146-1264    H    0.30293999    0.27564996    0.28984007    0.11500000
opls_146-1265    H    0.30883011    0.25947004    0.37482002    0.11500000
opls_146-1266    H    0.35792999    0.29770000    0.37570000    0.11500000
opls_146-1267    H    0.66229993    0.28311991    0.01695005    0.11500000
opls_146-1268    H    0.69836001    0.25773010    0.01892994    0.11500000
opls_146-1269    H    0.61577990    0.20619995    0.05569010    0.11500000
opls_146-1270    H    0.69673008    0.21467999    0.00105002    0.11500000
opls_144-1271    H    0.63652003    0.13893009    0.01379998    0.11500000
opls_146-1272    H    0.72486007    0.16254007    0.98245998    0.11500000
opls_146-1273    H    0.64612990    0.10520996    0.02344996    0.11500000
opls_146-1274    H    0.65753995    0.06727007    0.02057992    0.11500000
opls_146-1275    H    0.71132994    0.09398989    0.29630008    0.11500000
opls_146-1276    H    0.62285001    0.06411010    0.31545993    0.11500000
opls_146-1277    H    0.62025998    0.09167004    0.27755994    0.11500000
opls_146-1278    H    0.70847994    0.12142997    0.25856992    0.11500000
opls_146-1279    H    0.68241000    0.11078000    0.21293996    0.11500000
opls_146-1280    H    0.67919004    0.13782999    0.17483998    0.11500000
opls_146-1281    H    0.63887002    0.17152005    0.22690999    0.11500000
opls_144-1282    H    0.68537008    0.17364006    0.14879999    0.11500000
opls_146-1283    H    0.66406994    0.28523992    0.11863994    0.11500000
opls_146-1284    H    0.62623008    0.23076009    0.12445009    0.11500000
opls_146-1285    H    0.62981001    0.19683009    0.15466004    0.11500000
opls_146-1286    H    0.69860004    0.24072991    0.07867004    0.11500000
opls_146-1287    H    0.68680003    0.03820010    0.29038993    0.11500000
opls_146-1288    H    0.72535001    0.02728993    0.28984007    0.11500000
opls_146-1289    H    0.74153006    0.04936002    0.37482002    0.11500000
opls_146-1290    H    0.70330007    0.06023009    0.37570000    0.11500000
opls_146-1291    H    0.00570008    0.95482007    0.31504999    0.11500000
opls_146-1292    H    0.96963998    0.89337001    0.31307009    0.11500000
opls_146-1293    H    0.05221989    0.92441987    0.27630993    0.11500000
opls_146-1294    H    0.97127007    0.85195002    0.33095001    0.11500000
opls_144-1295    H    0.03148002    0.83640995    0.31820005    0.11500000
opls_146-1296    H    0.94314010    0.77168005    0.34954006    0.11500000
opls_146-1297    H    0.02186994    0.79308002    0.30855007    0.11500000
opls_146-1298    H    0.01046002    0.74373002    0.31141991    0.11500000
opls_146-1299    H    0.95667003    0.71665999    0.03569996    0.11500000
opls_146-1300    H    0.04515004    0.77525997    0.01654010    0.11500000
opls_146-1301    H    0.04773999    0.80541000    0.05444009    0.11500000
opls_146-1302    H    0.95952000    0.74694992    0.07342990    0.11500000
opls_146-1303    H    0.98559003    0.76236992    0.11906007    0.11500000
opls_146-1304    H    0.98881002    0.79264002    0.15716005    0.11500000
opls_146-1305    H    0.02912993    0.86664997    0.10509004    0.11500000
opls_144-1306    H    0.98262999    0.82227006    0.18320004    0.11500000
opls_146-1307    H    0.00393011    0.95517007    0.21336009    0.11500000
opls_146-1308    H    0.04176988    0.93852989    0.20754994    0.11500000
opls_146-1309    H    0.03819005    0.90101997    0.17734000    0.11500000
opls_146-1310    H    0.96939987    0.87612988    0.25332999    0.11500000
opls_146-1311    H    0.98120010    0.68540005    0.04160990    0.11500000
opls_146-1312    H    0.94264995    0.63594000    0.04215996    0.11500000
opls_146-1313    H    0.92647004    0.64182997    0.95718001    0.11500000
opls_146-1314    H    0.96469998    0.69093000    0.95630003    0.11500000
opls_702-1315    H    0.00066999    0.00033997    0.68427002    0.17400000
opls_702-1316    H    0.00066999    0.00033997    0.78395009    0.17400000
opls_146-1317    H    0.95011995    0.99529993    0.31504999    0.11500000
opls_146-1318    H    0.92473006    0.03135997    0.31307009    0.11500000
opls_146-1319    H    0.87319991    0.94877996    0.27630993    0.11500000
opls_146-1320    H    0.88168008    0.02973007    0.33095001    0.11500000
opls_144-1321    H    0.80592998    0.96952003    0.31820005    0.11500000
opls_146-1322    H    0.82954004    0.05785990    0.34954006    0.11500000
opls_146-1323    H    0.77220998    0.97913004    0.30855007    0.11500000
opls_146-1324    H    0.73427004    0.99053993    0.31141991    0.11500000
opls_146-1325    H    0.76098997    0.04433000    0.03569996    0.11500000
opls_146-1326    H    0.73110999    0.95585001    0.01654010    0.11500000
opls_146-1327    H    0.75867001    0.95325992    0.05444009    0.11500000
opls_146-1328    H    0.78842997    0.04147993    0.07342990    0.11500000
opls_146-1329    H    0.77777992    0.01540997    0.11906007    0.11500000
opls_146-1330    H    0.80482998    0.01219007    0.15716005    0.11500000
opls_146-1331    H    0.83852004    0.97186996    0.10509004    0.11500000
opls_144-1332    H    0.84064004    0.01837009    0.18320004    0.11500000
opls_146-1333    H    0.95223991    0.99706995    0.21336009    0.11500000
opls_146-1334    H    0.89775996    0.95922987    0.20754994    0.11500000
opls_146-1335    H    0.86382998    0.96281000    0.17734000    0.11500000
opls_146-1336    H    0.90772994    0.03159991    0.25332999    0.11500000
opls_146-1337    H    0.70519992    0.01979993    0.04160990    0.11500000
opls_146-1338    H    0.69429002    0.05835002    0.04215996    0.11500000
opls_146-1339    H    0.71636005    0.07452993    0.95718001    0.11500000
opls_146-1340    H    0.72722998    0.03629998    0.95630003    0.11500000
opls_146-1341    H    0.04618001    0.05088007    0.31504999    0.11500000
opls_146-1342    H    0.10763000    0.07627009    0.31307009    0.11500000
opls_146-1343    H    0.07657994    0.12780003    0.27630993    0.11500000
opls_146-1344    H    0.14905007    0.11931998    0.33095001    0.11500000
opls_144-1345    H    0.16459003    0.19507010    0.31820005    0.11500000
opls_146-1346    H    0.22931999    0.17145991    0.34954006    0.11500000
opls_146-1347    H    0.20791993    0.22879002    0.30855007    0.11500000
opls_146-1348    H    0.25726988    0.26672991    0.31141991    0.11500000
opls_146-1349    H    0.28434003    0.24001008    0.03569996    0.11500000
opls_146-1350    H    0.22574001    0.26989009    0.01654010    0.11500000
opls_146-1351    H    0.19558993    0.24232994    0.05444009    0.11500000
opls_146-1352    H    0.25404996    0.21257001    0.07342990    0.11500000
opls_146-1353    H    0.23862999    0.22321997    0.11906007    0.11500000
opls_146-1354    H    0.20836004    0.19616999    0.15716005    0.11500000
opls_146-1355    H    0.13434996    0.16247993    0.10509004    0.11500000
opls_144-1356    H    0.17873001    0.16035992    0.18320004    0.11500000
opls_146-1357    H    0.04583001    0.04876006    0.21336009    0.11500000
opls_146-1358    H    0.06247009    0.10324010    0.20754994    0.11500000
opls_146-1359    H    0.09998001    0.13717010    0.17734000    0.11500000
opls_146-1360    H    0.12487013    0.09327007    0.25332999    0.11500000
opls_146-1361    H    0.31560002    0.29580009    0.04160990    0.11500000
opls_146-1362    H    0.36506007    0.30671005    0.04215996    0.11500000
opls_146-1363    H    0.35917003    0.28463996    0.95718001    0.11500000
opls_146-1364    H    0.31006997    0.27376989    0.95630003    0.11500000
