#======================================================================
# Crystal Data Generated By AuToFF
#----------------------------------------------------------------------

data_AuToFF_phase_1

_cell_length_a                         65.6660
_cell_length_b                         65.6660
_cell_length_c                         31.8663
_cell_angle_alpha                      90.00
_cell_angle_beta                       90.00
_cell_angle_gamma                      90.00
_symmetry_space_group_name_H-M_alt     'P 1'
_symmetry_space_group_IT_number        1

loop_
_space_group_symop_operation_xyz
   'x, y, z'

loop_
   _atom_site_label
   _atom_site_type_symbol
   _atom_site_fract_x
   _atom_site_fract_y
   _atom_site_fract_z
   _atom_site_charge
opls_145-0    C    0.91348004    0.99593001    0.53905003    -0.09780000
opls_145-1    C    0.89189002    0.99492995    0.53901991    -0.11830000
opls_145-2    C    0.81421999    0.00692002    0.46121985    -0.09770000
opls_700-3    C    0.55337998    0.99687997    0.11170013    0.06590000
opls_145-4    C    0.56309993    0.01497000    0.12594998    -0.09970000
opls_145-5    C    0.57749992    0.01412999    0.15943991    -0.16570000
opls_145-6    C    0.58223007    0.99530000    0.17940991    0.18810000
opls_145-7    C    0.57282003    0.97705007    0.16421015    -0.14140000
opls_145-8    C    0.55845004    0.97789998    0.13067002    -0.09970000
opls_142-9    C    0.59930999    0.98076996    0.24267016    0.01330000
opls_700-10    C    0.61423994    0.98312003    0.27829996    0.05960000
opls_145-11    C    0.61567996    0.96758992    0.30963996    -0.09770000
opls_145-12    C    0.62917994    0.96974005    0.34446014    -0.09780000
opls_700-13    C    0.64156002    0.98747997    0.34860997    0.06540000
opls_145-14    C    0.64030000    0.00291003    0.31684005    -0.09780000
opls_145-15    C    0.62678007    0.00076996    0.28202992    -0.09780000
opls_700-16    C    0.65531005    0.99007995    0.38654001    0.06540000
opls_145-17    C    0.66635001    0.97315993    0.40332985    -0.09780000
opls_145-18    C    0.67851993    0.97545000    0.44019011    -0.16510000
opls_916-19    C    0.67989005    0.99465995    0.46074003    0.17960000
opls_145-20    C    0.66923004    0.01165002    0.44386013    -0.16570000
opls_145-21    C    0.65702997    0.00939999    0.40704004    -0.09770000
opls_145-22    C    0.79267993    0.00516005    0.53892011    -0.09760000
opls_145-23    C    0.74641001    0.00139996    0.53880997    -0.09710000
opls_145-24    C    0.72489005    0.99958000    0.53875003    -0.11840000
opls_543-25    C    0.00094996    0.51660007    0.90943002    0.17580000
opls_543-26    C    0.00240002    0.54345004    0.03463000    0.18010000
opls_716-27    C    0.00363004    0.56393004    0.02190998    -0.18840000
opls_716-28    C    0.51049006    0.99941004    0.86667985    -0.19650000
opls_700-29    C    0.46273003    0.00211997    0.07774012    -0.13530000
opls_700-30    C    0.99752003    0.05273003    0.50000000    -0.13740000
opls_543-31    C    0.97902004    0.04157007    0.50000000    0.20970000
opls_716-32    C    0.95974005    0.05085996    0.50000000    -0.16700000
opls_700-33    C    0.92435004    0.99645007    0.50000000    0.06340000
opls_145-34    C    0.88105001    0.99450005    0.50000000    0.18430000
opls_700-35    C    0.78124006    0.00423004    0.50000000    0.06200000
opls_700-36    C    0.75785003    0.00232007    0.50000000    0.06200000
opls_916-37    C    0.71375994    0.99851004    0.50000000    0.19190000
opls_543-38    C    0.95663997    0.01698002    0.50000000    0.21050000
opls_716-39    C    0.94558996    0.03531005    0.50000000    -0.16700000
opls_142-40    C    0.84756998    0.00971995    0.50000000    0.08360000
opls_700-41    C    0.82503000    0.00776993    0.50000000    0.05880000
opls_145-42    C    0.08651996    0.00406999    0.53905003    -0.09780000
opls_145-43    C    0.10810998    0.00507005    0.53901991    -0.11830000
opls_145-44    C    0.18578001    0.99307998    0.46121985    -0.09770000
opls_700-45    C    0.44662002    0.00312003    0.11170013    0.06590000
opls_145-46    C    0.43690007    0.98503000    0.12594998    -0.09970000
opls_145-47    C    0.42249992    0.98587001    0.15943991    -0.16570000
opls_145-48    C    0.41776993    0.00470000    0.17940991    0.18810000
opls_145-49    C    0.42717997    0.02294993    0.16421015    -0.14140000
opls_145-50    C    0.44154996    0.02210002    0.13067002    -0.09970000
opls_142-51    C    0.40069001    0.01923004    0.24267016    0.01330000
opls_700-52    C    0.38576006    0.01687997    0.27829996    0.05960000
opls_145-53    C    0.38432004    0.03241008    0.30963996    -0.09770000
opls_145-54    C    0.37082006    0.03025995    0.34446014    -0.09780000
opls_700-55    C    0.35843998    0.01252003    0.34860997    0.06540000
opls_145-56    C    0.35970000    0.99708997    0.31684005    -0.09780000
opls_145-57    C    0.37321993    0.99923004    0.28202992    -0.09780000
opls_700-58    C    0.34468995    0.00992005    0.38654001    0.06540000
opls_145-59    C    0.33364999    0.02684007    0.40332985    -0.09780000
opls_145-60    C    0.32148007    0.02455000    0.44019011    -0.16510000
opls_916-61    C    0.32010995    0.00534005    0.46074003    0.17960000
opls_145-62    C    0.33076996    0.98834998    0.44386013    -0.16570000
opls_145-63    C    0.34297003    0.99060001    0.40704004    -0.09770000
opls_145-64    C    0.20732007    0.99483995    0.53892011    -0.09760000
opls_145-65    C    0.25358999    0.99860004    0.53880997    -0.09720000
opls_145-66    C    0.27510995    0.00042000    0.53875003    -0.11840000
opls_543-67    C    0.99905004    0.48339993    0.90943002    0.17580000
opls_543-68    C    0.99759998    0.45654996    0.03463000    0.18010000
opls_716-69    C    0.99636996    0.43606996    0.02190998    -0.18840000
opls_716-70    C    0.48950994    0.00058996    0.86667985    -0.19650000
opls_700-71    C    0.53726997    0.99788003    0.07774012    -0.13530000
opls_700-72    C    0.00247997    0.94726997    0.50000000    -0.13730000
opls_543-73    C    0.02097996    0.95842993    0.50000000    0.20970000
opls_716-74    C    0.04025995    0.94914004    0.50000000    -0.16700000
opls_700-75    C    0.07564996    0.00354993    0.50000000    0.06340000
opls_145-76    C    0.11894999    0.00549995    0.50000000    0.18430000
opls_700-77    C    0.21875994    0.99576996    0.50000000    0.06200000
opls_700-78    C    0.24214997    0.99767993    0.50000000    0.06200000
opls_916-79    C    0.28624006    0.00148996    0.50000000    0.19190000
opls_543-80    C    0.04336003    0.98301998    0.50000000    0.21050000
opls_716-81    C    0.05441004    0.96468995    0.50000000    -0.16700000
opls_142-82    C    0.15243002    0.99028005    0.50000000    0.08360000
opls_700-83    C    0.17497000    0.99223007    0.50000000    0.05880000
opls_145-84    C    0.00406999    0.91348004    0.53905003    -0.09780000
opls_145-85    C    0.00507005    0.89189002    0.53901991    -0.11830000
opls_145-86    C    0.99307998    0.81421999    0.46121985    -0.09770000
opls_700-87    C    0.00312003    0.55337998    0.11170013    0.06590000
opls_145-88    C    0.98503000    0.56309993    0.12594998    -0.09970000
opls_145-89    C    0.98587001    0.57749992    0.15943991    -0.16560000
opls_145-90    C    0.00470000    0.58223007    0.17940991    0.18810000
opls_145-91    C    0.02294993    0.57282003    0.16421015    -0.14140000
opls_145-92    C    0.02210002    0.55845004    0.13067002    -0.09970000
opls_142-93    C    0.01923004    0.59930999    0.24267016    0.01330000
opls_700-94    C    0.01687997    0.61423994    0.27829996    0.05960000
opls_145-95    C    0.03241008    0.61567996    0.30963996    -0.09770000
opls_145-96    C    0.03025995    0.62917994    0.34446014    -0.09780000
opls_700-97    C    0.01252003    0.64156002    0.34860997    0.06540000
opls_145-98    C    0.99708997    0.64030000    0.31684005    -0.09780000
opls_145-99    C    0.99923004    0.62678007    0.28202992    -0.09770000
opls_700-100    C    0.00992005    0.65531005    0.38654001    0.06540000
opls_145-101    C    0.02684007    0.66635001    0.40332985    -0.09770000
opls_145-102    C    0.02455000    0.67851993    0.44019011    -0.16510000
opls_916-103    C    0.00534005    0.67989005    0.46074003    0.17960000
opls_145-104    C    0.98834998    0.66923004    0.44386013    -0.16570000
opls_145-105    C    0.99060001    0.65702997    0.40704004    -0.09770000
opls_145-106    C    0.99483995    0.79267993    0.53892011    -0.09760000
opls_145-107    C    0.99860004    0.74641001    0.53880997    -0.09720000
opls_145-108    C    0.00042000    0.72489005    0.53875003    -0.11840000
opls_543-109    C    0.48339993    0.00094996    0.90943002    0.17580000
opls_543-110    C    0.45654996    0.00240002    0.03463000    0.18010000
opls_716-111    C    0.43606996    0.00363004    0.02190998    -0.18840000
opls_716-112    C    0.00058996    0.51049006    0.86667985    -0.19640000
opls_700-113    C    0.99788003    0.46273003    0.07774012    -0.13530000
opls_700-114    C    0.94726997    0.99752003    0.50000000    -0.13740000
opls_543-115    C    0.95842993    0.97902004    0.50000000    0.20970000
opls_716-116    C    0.94914004    0.95974005    0.50000000    -0.16700000
opls_700-117    C    0.00354993    0.92435004    0.50000000    0.06340000
opls_145-118    C    0.00549995    0.88105001    0.50000000    0.18430000
opls_700-119    C    0.99576996    0.78124006    0.50000000    0.06210000
opls_700-120    C    0.99767993    0.75785003    0.50000000    0.06200000
opls_916-121    C    0.00148996    0.71375994    0.50000000    0.19190000
opls_543-122    C    0.98301998    0.95663997    0.50000000    0.21050000
opls_716-123    C    0.96468995    0.94558996    0.50000000    -0.16700000
opls_142-124    C    0.99028005    0.84756998    0.50000000    0.08360000
opls_700-125    C    0.99223007    0.82503000    0.50000000    0.05880000
opls_145-126    C    0.99593001    0.08651996    0.53905003    -0.09780000
opls_145-127    C    0.99492995    0.10810998    0.53901991    -0.11830000
opls_145-128    C    0.00692002    0.18578001    0.46121985    -0.09770000
opls_700-129    C    0.99687997    0.44662002    0.11170013    0.06590000
opls_145-130    C    0.01497000    0.43690007    0.12594998    -0.09970000
opls_145-131    C    0.01412999    0.42249992    0.15943991    -0.16560000
opls_145-132    C    0.99530000    0.41776993    0.17940991    0.18810000
opls_145-133    C    0.97705007    0.42717997    0.16421015    -0.14140000
opls_145-134    C    0.97789998    0.44154996    0.13067002    -0.09970000
opls_142-135    C    0.98076996    0.40069001    0.24267016    0.01330000
opls_700-136    C    0.98312003    0.38576006    0.27829996    0.05960000
opls_145-137    C    0.96758992    0.38432004    0.30963996    -0.09770000
opls_145-138    C    0.96974005    0.37082006    0.34446014    -0.09780000
opls_700-139    C    0.98747997    0.35843998    0.34860997    0.06540000
opls_145-140    C    0.00291003    0.35970000    0.31684005    -0.09780000
opls_145-141    C    0.00076996    0.37321993    0.28202992    -0.09780000
opls_700-142    C    0.99007995    0.34468995    0.38654001    0.06550000
opls_145-143    C    0.97315993    0.33364999    0.40332985    -0.09780000
opls_145-144    C    0.97545000    0.32148007    0.44019011    -0.16510000
opls_916-145    C    0.99465995    0.32010995    0.46074003    0.17960000
opls_145-146    C    0.01165002    0.33076996    0.44386013    -0.16570000
opls_145-147    C    0.00939999    0.34297003    0.40704004    -0.09770000
opls_145-148    C    0.00516005    0.20732007    0.53892011    -0.09760000
opls_145-149    C    0.00139996    0.25358999    0.53880997    -0.09720000
opls_145-150    C    0.99958000    0.27510995    0.53875003    -0.11840000
opls_543-151    C    0.51660007    0.99905004    0.90943002    0.17580000
opls_543-152    C    0.54345004    0.99759998    0.03463000    0.18010000
opls_716-153    C    0.56393004    0.99636996    0.02190998    -0.18840000
opls_716-154    C    0.99941004    0.48950994    0.86667985    -0.19650000
opls_700-155    C    0.00211997    0.53726997    0.07774012    -0.13530000
opls_700-156    C    0.05273003    0.00247997    0.50000000    -0.13740000
opls_543-157    C    0.04157007    0.02097996    0.50000000    0.20970000
opls_716-158    C    0.05085996    0.04025995    0.50000000    -0.16700000
opls_700-159    C    0.99645007    0.07564996    0.50000000    0.06340000
opls_145-160    C    0.99450005    0.11894999    0.50000000    0.18440000
opls_700-161    C    0.00423004    0.21875994    0.50000000    0.06200000
opls_700-162    C    0.00232007    0.24214997    0.50000000    0.06200000
opls_916-163    C    0.99851004    0.28624006    0.50000000    0.19200000
opls_543-164    C    0.01698002    0.04336003    0.50000000    0.21050000
opls_716-165    C    0.03531005    0.05441004    0.50000000    -0.16700000
opls_142-166    C    0.00971995    0.15243002    0.50000000    0.08360000
opls_700-167    C    0.00776993    0.17497000    0.50000000    0.05880000
opls_145-168    C    0.08651996    0.00406999    0.46094997    -0.09780000
opls_145-169    C    0.10810998    0.00507005    0.46098009    -0.11830000
opls_145-170    C    0.18578001    0.99307998    0.53878015    -0.09770000
opls_700-171    C    0.44662002    0.00312003    0.88829987    0.06590000
opls_145-172    C    0.43690007    0.98503000    0.87405002    -0.09970000
opls_145-173    C    0.42249992    0.98587001    0.84056009    -0.16570000
opls_145-174    C    0.41776993    0.00470000    0.82059009    0.18810000
opls_145-175    C    0.42717997    0.02294993    0.83578985    -0.14140000
opls_145-176    C    0.44154996    0.02210002    0.86932998    -0.09970000
opls_142-177    C    0.40069001    0.01923004    0.75732984    0.01330000
opls_700-178    C    0.38576006    0.01687997    0.72170004    0.05960000
opls_145-179    C    0.38432004    0.03241008    0.69036004    -0.09770000
opls_145-180    C    0.37082006    0.03025995    0.65553986    -0.09780000
opls_700-181    C    0.35843998    0.01252003    0.65139003    0.06540000
opls_145-182    C    0.35970000    0.99708997    0.68315995    -0.09780000
opls_145-183    C    0.37321993    0.99923004    0.71797008    -0.09780000
opls_700-184    C    0.34468995    0.00992005    0.61345999    0.06540000
opls_145-185    C    0.33364999    0.02684007    0.59667015    -0.09780000
opls_145-186    C    0.32148007    0.02455000    0.55980989    -0.16510000
opls_916-187    C    0.32010995    0.00534005    0.53925997    0.17960000
opls_145-188    C    0.33076996    0.98834998    0.55613987    -0.16570000
opls_145-189    C    0.34297003    0.99060001    0.59295996    -0.09780000
opls_145-190    C    0.20732007    0.99483995    0.46107989    -0.09760000
opls_145-191    C    0.25358999    0.99860004    0.46119003    -0.09720000
opls_145-192    C    0.27510995    0.00042000    0.46124997    -0.11840000
opls_543-193    C    0.99905004    0.48339993    0.09056998    0.17580000
opls_543-194    C    0.99759998    0.45654996    0.96537000    0.18010000
opls_716-195    C    0.99636996    0.43606996    0.97809002    -0.18840000
opls_716-196    C    0.48950994    0.00058996    0.13332015    -0.19650000
opls_700-197    C    0.53726997    0.99788003    0.92225988    -0.13530000
opls_145-198    C    0.91348004    0.99593001    0.46094997    -0.09780000
opls_145-199    C    0.89189002    0.99492995    0.46098009    -0.11820000
opls_145-200    C    0.81421999    0.00692002    0.53878015    -0.09770000
opls_700-201    C    0.55337998    0.99687997    0.88829987    0.06590000
opls_145-202    C    0.56309993    0.01497000    0.87405002    -0.09970000
opls_145-203    C    0.57749992    0.01412999    0.84056009    -0.16570000
opls_145-204    C    0.58223007    0.99530000    0.82059009    0.18810000
opls_145-205    C    0.57282003    0.97705007    0.83578985    -0.14140000
opls_145-206    C    0.55845004    0.97789998    0.86932998    -0.09970000
opls_142-207    C    0.59930999    0.98076996    0.75732984    0.01330000
opls_700-208    C    0.61423994    0.98312003    0.72170004    0.05960000
opls_145-209    C    0.61567996    0.96758992    0.69036004    -0.09770000
opls_145-210    C    0.62917994    0.96974005    0.65553986    -0.09780000
opls_700-211    C    0.64156002    0.98747997    0.65139003    0.06540000
opls_145-212    C    0.64030000    0.00291003    0.68315995    -0.09780000
opls_145-213    C    0.62678007    0.00076996    0.71797008    -0.09780000
opls_700-214    C    0.65531005    0.99007995    0.61345999    0.06540000
opls_145-215    C    0.66635001    0.97315993    0.59667015    -0.09770000
opls_145-216    C    0.67851993    0.97545000    0.55980989    -0.16500000
opls_916-217    C    0.67989005    0.99465995    0.53925997    0.17960000
opls_145-218    C    0.66923004    0.01165002    0.55613987    -0.16570000
opls_145-219    C    0.65702997    0.00939999    0.59295996    -0.09780000
opls_145-220    C    0.79267993    0.00516005    0.46107989    -0.09760000
opls_145-221    C    0.74641001    0.00139996    0.46119003    -0.09720000
opls_145-222    C    0.72489005    0.99958000    0.46124997    -0.11840000
opls_543-223    C    0.00094996    0.51660007    0.09056998    0.17580000
opls_543-224    C    0.00240002    0.54345004    0.96537000    0.18010000
opls_716-225    C    0.00363004    0.56393004    0.97809002    -0.18840000
opls_716-226    C    0.51049006    0.99941004    0.13332015    -0.19650000
opls_700-227    C    0.46273003    0.00211997    0.92225988    -0.13530000
opls_145-228    C    0.99593001    0.08651996    0.46094997    -0.09780000
opls_145-229    C    0.99492995    0.10810998    0.46098009    -0.11830000
opls_145-230    C    0.00692002    0.18578001    0.53878015    -0.09770000
opls_700-231    C    0.99687997    0.44662002    0.88829987    0.06590000
opls_145-232    C    0.01497000    0.43690007    0.87405002    -0.09970000
opls_145-233    C    0.01412999    0.42249992    0.84056009    -0.16570000
opls_145-234    C    0.99530000    0.41776993    0.82059009    0.18810000
opls_145-235    C    0.97705007    0.42717997    0.83578985    -0.14140000
opls_145-236    C    0.97789998    0.44154996    0.86932998    -0.09970000
opls_142-237    C    0.98076996    0.40069001    0.75732984    0.01330000
opls_700-238    C    0.98312003    0.38576006    0.72170004    0.05960000
opls_145-239    C    0.96758992    0.38432004    0.69036004    -0.09770000
opls_145-240    C    0.96974005    0.37082006    0.65553986    -0.09780000
opls_700-241    C    0.98747997    0.35843998    0.65139003    0.06540000
opls_145-242    C    0.00291003    0.35970000    0.68315995    -0.09780000
opls_145-243    C    0.00076996    0.37321993    0.71797008    -0.09780000
opls_700-244    C    0.99007995    0.34468995    0.61345999    0.06540000
opls_145-245    C    0.97315993    0.33364999    0.59667015    -0.09780000
opls_145-246    C    0.97545000    0.32148007    0.55980989    -0.16510000
opls_916-247    C    0.99465995    0.32010995    0.53925997    0.17960000
opls_145-248    C    0.01165002    0.33076996    0.55613987    -0.16570000
opls_145-249    C    0.00939999    0.34297003    0.59295996    -0.09780000
opls_145-250    C    0.00516005    0.20732007    0.46107989    -0.09760000
opls_145-251    C    0.00139996    0.25358999    0.46119003    -0.09710000
opls_145-252    C    0.99958000    0.27510995    0.46124997    -0.11840000
opls_543-253    C    0.51660007    0.99905004    0.09056998    0.17580000
opls_543-254    C    0.54345004    0.99759998    0.96537000    0.18010000
opls_716-255    C    0.56393004    0.99636996    0.97809002    -0.18840000
opls_716-256    C    0.99941004    0.48950994    0.13332015    -0.19650000
opls_700-257    C    0.00211997    0.53726997    0.92225988    -0.13530000
opls_145-258    C    0.00406999    0.91348004    0.46094997    -0.09770000
opls_145-259    C    0.00507005    0.89189002    0.46098009    -0.11830000
opls_145-260    C    0.99307998    0.81421999    0.53878015    -0.09770000
opls_700-261    C    0.00312003    0.55337998    0.88829987    0.06590000
opls_145-262    C    0.98503000    0.56309993    0.87405002    -0.09970000
opls_145-263    C    0.98587001    0.57749992    0.84056009    -0.16570000
opls_145-264    C    0.00470000    0.58223007    0.82059009    0.18810000
opls_145-265    C    0.02294993    0.57282003    0.83578985    -0.14140000
opls_145-266    C    0.02210002    0.55845004    0.86932998    -0.09970000
opls_142-267    C    0.01923004    0.59930999    0.75732984    0.01330000
opls_700-268    C    0.01687997    0.61423994    0.72170004    0.05960000
opls_145-269    C    0.03241008    0.61567996    0.69036004    -0.09770000
opls_145-270    C    0.03025995    0.62917994    0.65553986    -0.09780000
opls_700-271    C    0.01252003    0.64156002    0.65139003    0.06540000
opls_145-272    C    0.99708997    0.64030000    0.68315995    -0.09770000
opls_145-273    C    0.99923004    0.62678007    0.71797008    -0.09780000
opls_700-274    C    0.00992005    0.65531005    0.61345999    0.06540000
opls_145-275    C    0.02684007    0.66635001    0.59667015    -0.09780000
opls_145-276    C    0.02455000    0.67851993    0.55980989    -0.16510000
opls_916-277    C    0.00534005    0.67989005    0.53925997    0.17960000
opls_145-278    C    0.98834998    0.66923004    0.55613987    -0.16570000
opls_145-279    C    0.99060001    0.65702997    0.59295996    -0.09780000
opls_145-280    C    0.99483995    0.79267993    0.46107989    -0.09760000
opls_145-281    C    0.99860004    0.74641001    0.46119003    -0.09720000
opls_145-282    C    0.00042000    0.72489005    0.46124997    -0.11840000
opls_543-283    C    0.48339993    0.00094996    0.09056998    0.17580000
opls_543-284    C    0.45654996    0.00240002    0.96537000    0.18010000
opls_716-285    C    0.43606996    0.00363004    0.97809002    -0.18840000
opls_716-286    C    0.00058996    0.51049006    0.13332015    -0.19650000
opls_700-287    C    0.99788003    0.46273003    0.92225988    -0.13530000
opls_145-288    C    0.41348004    0.49593001    0.03905003    -0.09780000
opls_145-289    C    0.39189002    0.49492995    0.03901991    -0.11830000
opls_145-290    C    0.31421999    0.50692002    0.96121985    -0.09770000
opls_700-291    C    0.05337998    0.49687997    0.61170013    0.06590000
opls_145-292    C    0.06309993    0.51497000    0.62594998    -0.09970000
opls_145-293    C    0.07749992    0.51412999    0.65943991    -0.16570000
opls_145-294    C    0.08223007    0.49530000    0.67940991    0.18810000
opls_145-295    C    0.07282003    0.47705007    0.66421015    -0.14140000
opls_145-296    C    0.05845004    0.47789998    0.63067002    -0.09970000
opls_142-297    C    0.09930999    0.48076996    0.74267016    0.01330000
opls_700-298    C    0.11423994    0.48312003    0.77829996    0.05960000
opls_145-299    C    0.11567996    0.46758992    0.80963996    -0.09770000
opls_145-300    C    0.12917994    0.46974005    0.84446014    -0.09780000
opls_700-301    C    0.14156002    0.48747997    0.84860997    0.06540000
opls_145-302    C    0.14030000    0.50291003    0.81684005    -0.09780000
opls_145-303    C    0.12678007    0.50076996    0.78202992    -0.09780000
opls_700-304    C    0.15531005    0.49007995    0.88654001    0.06540000
opls_145-305    C    0.16635001    0.47315993    0.90332985    -0.09780000
opls_145-306    C    0.17851993    0.47545000    0.94019011    -0.16510000
opls_916-307    C    0.17989005    0.49465995    0.96074003    0.17960000
opls_145-308    C    0.16923004    0.51165002    0.94386013    -0.16570000
opls_145-309    C    0.15702997    0.50939999    0.90704004    -0.09780000
opls_145-310    C    0.29267993    0.50516005    0.03892011    -0.09760000
opls_145-311    C    0.24641001    0.50139996    0.03880997    -0.09720000
opls_145-312    C    0.22489005    0.49958000    0.03875003    -0.11840000
opls_543-313    C    0.50094996    0.01660007    0.40943002    0.17580000
opls_543-314    C    0.50240002    0.04345004    0.53463000    0.18010000
opls_716-315    C    0.50363004    0.06393004    0.52190998    -0.18840000
opls_716-316    C    0.01049006    0.49941004    0.36667985    -0.19650000
opls_700-317    C    0.96273003    0.50211997    0.57774012    -0.13530000
opls_700-318    C    0.49752003    0.55273003    0.00000000    -0.13740000
opls_543-319    C    0.47902004    0.54157007    0.00000000    0.20970000
opls_716-320    C    0.45974005    0.55085996    0.00000000    -0.16700000
opls_700-321    C    0.42435004    0.49645007    0.00000000    0.06340000
opls_145-322    C    0.38105001    0.49450005    0.00000000    0.18440000
opls_700-323    C    0.28124006    0.50423004    0.00000000    0.06200000
opls_700-324    C    0.25785003    0.50232007    0.00000000    0.06200000
opls_916-325    C    0.21375994    0.49851004    0.00000000    0.19190000
opls_543-326    C    0.45663997    0.51698002    0.00000000    0.21050000
opls_716-327    C    0.44558996    0.53531005    0.00000000    -0.16700000
opls_142-328    C    0.34756998    0.50971995    0.00000000    0.08360000
opls_700-329    C    0.32503000    0.50776993    0.00000000    0.05880000
opls_145-330    C    0.58651996    0.50406999    0.03905003    -0.09780000
opls_145-331    C    0.60810998    0.50507005    0.03901991    -0.11830000
opls_145-332    C    0.68578001    0.49307998    0.96121985    -0.09770000
opls_700-333    C    0.94662002    0.50312003    0.61170013    0.06590000
opls_145-334    C    0.93690007    0.48503000    0.62594998    -0.09970000
opls_145-335    C    0.92249992    0.48587001    0.65943991    -0.16570000
opls_145-336    C    0.91776993    0.50470000    0.67940991    0.18810000
opls_145-337    C    0.92717997    0.52294993    0.66421015    -0.14140000
opls_145-338    C    0.94154996    0.52210002    0.63067002    -0.09970000
opls_142-339    C    0.90069001    0.51923004    0.74267016    0.01330000
opls_700-340    C    0.88576006    0.51687997    0.77829996    0.05960000
opls_145-341    C    0.88432004    0.53241008    0.80963996    -0.09770000
opls_145-342    C    0.87082006    0.53025995    0.84446014    -0.09780000
opls_700-343    C    0.85843998    0.51252003    0.84860997    0.06540000
opls_145-344    C    0.85970000    0.49708997    0.81684005    -0.09780000
opls_145-345    C    0.87321993    0.49923004    0.78202992    -0.09780000
opls_700-346    C    0.84468995    0.50992005    0.88654001    0.06540000
opls_145-347    C    0.83364999    0.52684007    0.90332985    -0.09780000
opls_145-348    C    0.82148007    0.52455000    0.94019011    -0.16510000
opls_916-349    C    0.82010995    0.50534005    0.96074003    0.17960000
opls_145-350    C    0.83076996    0.48834998    0.94386013    -0.16570000
opls_145-351    C    0.84297003    0.49060001    0.90704004    -0.09780000
opls_145-352    C    0.70732007    0.49483995    0.03892011    -0.09760000
opls_145-353    C    0.75358999    0.49860004    0.03880997    -0.09720000
opls_145-354    C    0.77510995    0.50042000    0.03875003    -0.11840000
opls_543-355    C    0.49905004    0.98339993    0.40943002    0.17580000
opls_543-356    C    0.49759998    0.95654996    0.53463000    0.18010000
opls_716-357    C    0.49636996    0.93606996    0.52190998    -0.18840000
opls_716-358    C    0.98950994    0.50058996    0.36667985    -0.19650000
opls_700-359    C    0.03726997    0.49788003    0.57774012    -0.13530000
opls_700-360    C    0.50247997    0.44726997    0.00000000    -0.13740000
opls_543-361    C    0.52097996    0.45842993    0.00000000    0.20970000
opls_716-362    C    0.54025995    0.44914004    0.00000000    -0.16700000
opls_700-363    C    0.57564996    0.50354993    0.00000000    0.06340000
opls_145-364    C    0.61894999    0.50549995    0.00000000    0.18430000
opls_700-365    C    0.71875994    0.49576996    0.00000000    0.06200000
opls_700-366    C    0.74214997    0.49767993    0.00000000    0.06200000
opls_916-367    C    0.78624006    0.50148996    0.00000000    0.19200000
opls_543-368    C    0.54336003    0.48301998    0.00000000    0.21050000
opls_716-369    C    0.55441004    0.46468995    0.00000000    -0.16700000
opls_142-370    C    0.65243002    0.49028005    0.00000000    0.08370000
opls_700-371    C    0.67497000    0.49223007    0.00000000    0.05880000
opls_145-372    C    0.50406999    0.41348004    0.03905003    -0.09780000
opls_145-373    C    0.50507005    0.39189002    0.03901991    -0.11830000
opls_145-374    C    0.49307998    0.31421999    0.96121985    -0.09770000
opls_700-375    C    0.50312003    0.05337998    0.61170013    0.06590000
opls_145-376    C    0.48503000    0.06309993    0.62594998    -0.09970000
opls_145-377    C    0.48587001    0.07749992    0.65943991    -0.16560000
opls_145-378    C    0.50470000    0.08223007    0.67940991    0.18810000
opls_145-379    C    0.52294993    0.07282003    0.66421015    -0.14140000
opls_145-380    C    0.52210002    0.05845004    0.63067002    -0.09970000
opls_142-381    C    0.51923004    0.09930999    0.74267016    0.01330000
opls_700-382    C    0.51687997    0.11423994    0.77829996    0.05960000
opls_145-383    C    0.53241008    0.11567996    0.80963996    -0.09770000
opls_145-384    C    0.53025995    0.12917994    0.84446014    -0.09780000
opls_700-385    C    0.51252003    0.14156002    0.84860997    0.06540000
opls_145-386    C    0.49708997    0.14030000    0.81684005    -0.09780000
opls_145-387    C    0.49923004    0.12678007    0.78202992    -0.09780000
opls_700-388    C    0.50992005    0.15531005    0.88654001    0.06540000
opls_145-389    C    0.52684007    0.16635001    0.90332985    -0.09780000
opls_145-390    C    0.52455000    0.17851993    0.94019011    -0.16510000
opls_916-391    C    0.50534005    0.17989005    0.96074003    0.17960000
opls_145-392    C    0.48834998    0.16923004    0.94386013    -0.16570000
opls_145-393    C    0.49060001    0.15702997    0.90704004    -0.09770000
opls_145-394    C    0.49483995    0.29267993    0.03892011    -0.09760000
opls_145-395    C    0.49860004    0.24641001    0.03880997    -0.09720000
opls_145-396    C    0.50042000    0.22489005    0.03875003    -0.11840000
opls_543-397    C    0.98339993    0.50094996    0.40943002    0.17580000
opls_543-398    C    0.95654996    0.50240002    0.53463000    0.18010000
opls_716-399    C    0.93606996    0.50363004    0.52190998    -0.18840000
opls_716-400    C    0.50058996    0.01049006    0.36667985    -0.19650000
opls_700-401    C    0.49788003    0.96273003    0.57774012    -0.13530000
opls_700-402    C    0.44726997    0.49752003    0.00000000    -0.13740000
opls_543-403    C    0.45842993    0.47902004    0.00000000    0.20970000
opls_716-404    C    0.44914004    0.45974005    0.00000000    -0.16700000
opls_700-405    C    0.50354993    0.42435004    0.00000000    0.06340000
opls_145-406    C    0.50549995    0.38105001    0.00000000    0.18430000
opls_700-407    C    0.49576996    0.28124006    0.00000000    0.06200000
opls_700-408    C    0.49767993    0.25785003    0.00000000    0.06200000
opls_916-409    C    0.50148996    0.21375994    0.00000000    0.19190000
opls_543-410    C    0.48301998    0.45663997    0.00000000    0.21050000
opls_716-411    C    0.46468995    0.44558996    0.00000000    -0.16700000
opls_142-412    C    0.49028005    0.34756998    0.00000000    0.08360000
opls_700-413    C    0.49223007    0.32503000    0.00000000    0.05880000
opls_145-414    C    0.49593001    0.58651996    0.03905003    -0.09780000
opls_145-415    C    0.49492995    0.60810998    0.03901991    -0.11830000
opls_145-416    C    0.50692002    0.68578001    0.96121985    -0.09770000
opls_700-417    C    0.49687997    0.94662002    0.61170013    0.06590000
opls_145-418    C    0.51497000    0.93690007    0.62594998    -0.09970000
opls_145-419    C    0.51412999    0.92249992    0.65943991    -0.16570000
opls_145-420    C    0.49530000    0.91776993    0.67940991    0.18810000
opls_145-421    C    0.47705007    0.92717997    0.66421015    -0.14140000
opls_145-422    C    0.47789998    0.94154996    0.63067002    -0.09960000
opls_142-423    C    0.48076996    0.90069001    0.74267016    0.01330000
opls_700-424    C    0.48312003    0.88576006    0.77829996    0.05960000
opls_145-425    C    0.46758992    0.88432004    0.80963996    -0.09770000
opls_145-426    C    0.46974005    0.87082006    0.84446014    -0.09780000
opls_700-427    C    0.48747997    0.85843998    0.84860997    0.06540000
opls_145-428    C    0.50291003    0.85970000    0.81684005    -0.09780000
opls_145-429    C    0.50076996    0.87321993    0.78202992    -0.09780000
opls_700-430    C    0.49007995    0.84468995    0.88654001    0.06540000
opls_145-431    C    0.47315993    0.83364999    0.90332985    -0.09780000
opls_145-432    C    0.47545000    0.82148007    0.94019011    -0.16510000
opls_916-433    C    0.49465995    0.82010995    0.96074003    0.17960000
opls_145-434    C    0.51165002    0.83076996    0.94386013    -0.16560000
opls_145-435    C    0.50939999    0.84297003    0.90704004    -0.09780000
opls_145-436    C    0.50516005    0.70732007    0.03892011    -0.09760000
opls_145-437    C    0.50139996    0.75358999    0.03880997    -0.09720000
opls_145-438    C    0.49958000    0.77510995    0.03875003    -0.11840000
opls_543-439    C    0.01660007    0.49905004    0.40943002    0.17580000
opls_543-440    C    0.04345004    0.49759998    0.53463000    0.18010000
opls_716-441    C    0.06393004    0.49636996    0.52190998    -0.18840000
opls_716-442    C    0.49941004    0.98950994    0.36667985    -0.19650000
opls_700-443    C    0.50211997    0.03726997    0.57774012    -0.13530000
opls_700-444    C    0.55273003    0.50247997    0.00000000    -0.13740000
opls_543-445    C    0.54157007    0.52097996    0.00000000    0.20990000
opls_716-446    C    0.55085996    0.54025995    0.00000000    -0.16690000
opls_700-447    C    0.49645007    0.57564996    0.00000000    0.06340000
opls_145-448    C    0.49450005    0.61894999    0.00000000    0.18430000
opls_700-449    C    0.50423004    0.71875994    0.00000000    0.06200000
opls_700-450    C    0.50232007    0.74214997    0.00000000    0.06200000
opls_916-451    C    0.49851004    0.78624006    0.00000000    0.19190000
opls_543-452    C    0.51698002    0.54336003    0.00000000    0.21050000
opls_716-453    C    0.53531005    0.55441004    0.00000000    -0.16700000
opls_142-454    C    0.50971995    0.65243002    0.00000000    0.08360000
opls_700-455    C    0.50776993    0.67497000    0.00000000    0.05880000
opls_145-456    C    0.58651996    0.50406999    0.96094997    -0.09780000
opls_145-457    C    0.60810998    0.50507005    0.96098009    -0.11830000
opls_145-458    C    0.68578001    0.49307998    0.03878015    -0.09770000
opls_700-459    C    0.94662002    0.50312003    0.38829987    0.06590000
opls_145-460    C    0.93690007    0.48503000    0.37405002    -0.09970000
opls_145-461    C    0.92249992    0.48587001    0.34056009    -0.16570000
opls_145-462    C    0.91776993    0.50470000    0.32059009    0.18810000
opls_145-463    C    0.92717997    0.52294993    0.33578985    -0.14140000
opls_145-464    C    0.94154996    0.52210002    0.36932998    -0.09960000
opls_142-465    C    0.90069001    0.51923004    0.25732984    0.01330000
opls_700-466    C    0.88576006    0.51687997    0.22170004    0.05960000
opls_145-467    C    0.88432004    0.53241008    0.19036004    -0.09770000
opls_145-468    C    0.87082006    0.53025995    0.15553986    -0.09780000
opls_700-469    C    0.85843998    0.51252003    0.15139003    0.06540000
opls_145-470    C    0.85970000    0.49708997    0.18315995    -0.09780000
opls_145-471    C    0.87321993    0.49923004    0.21797008    -0.09780000
opls_700-472    C    0.84468995    0.50992005    0.11345999    0.06550000
opls_145-473    C    0.83364999    0.52684007    0.09667015    -0.09780000
opls_145-474    C    0.82148007    0.52455000    0.05980989    -0.16510000
opls_916-475    C    0.82010995    0.50534005    0.03925997    0.17960000
opls_145-476    C    0.83076996    0.48834998    0.05613987    -0.16560000
opls_145-477    C    0.84297003    0.49060001    0.09295996    -0.09780000
opls_145-478    C    0.70732007    0.49483995    0.96107989    -0.09760000
opls_145-479    C    0.75358999    0.49860004    0.96119003    -0.09710000
opls_145-480    C    0.77510995    0.50042000    0.96124997    -0.11840000
opls_543-481    C    0.49905004    0.98339993    0.59056998    0.17580000
opls_543-482    C    0.49759998    0.95654996    0.46537000    0.18010000
opls_716-483    C    0.49636996    0.93606996    0.47809002    -0.18840000
opls_716-484    C    0.98950994    0.50058996    0.63332015    -0.19650000
opls_700-485    C    0.03726997    0.49788003    0.42225988    -0.13530000
opls_145-486    C    0.41348004    0.49593001    0.96094997    -0.09780000
opls_145-487    C    0.39189002    0.49492995    0.96098009    -0.11830000
opls_145-488    C    0.31421999    0.50692002    0.03878015    -0.09770000
opls_700-489    C    0.05337998    0.49687997    0.38829987    0.06590000
opls_145-490    C    0.06309993    0.51497000    0.37405002    -0.09970000
opls_145-491    C    0.07749992    0.51412999    0.34056009    -0.16570000
opls_145-492    C    0.08223007    0.49530000    0.32059009    0.18810000
opls_145-493    C    0.07282003    0.47705007    0.33578985    -0.14140000
opls_145-494    C    0.05845004    0.47789998    0.36932998    -0.09970000
opls_142-495    C    0.09930999    0.48076996    0.25732984    0.01330000
opls_700-496    C    0.11423994    0.48312003    0.22170004    0.05960000
opls_145-497    C    0.11567996    0.46758992    0.19036004    -0.09770000
opls_145-498    C    0.12917994    0.46974005    0.15553986    -0.09780000
opls_700-499    C    0.14156002    0.48747997    0.15139003    0.06540000
opls_145-500    C    0.14030000    0.50291003    0.18315995    -0.09780000
opls_145-501    C    0.12678007    0.50076996    0.21797008    -0.09780000
opls_700-502    C    0.15531005    0.49007995    0.11345999    0.06540000
opls_145-503    C    0.16635001    0.47315993    0.09667015    -0.09780000
opls_145-504    C    0.17851993    0.47545000    0.05980989    -0.16510000
opls_916-505    C    0.17989005    0.49465995    0.03925997    0.17960000
opls_145-506    C    0.16923004    0.51165002    0.05613987    -0.16570000
opls_145-507    C    0.15702997    0.50939999    0.09295996    -0.09780000
opls_145-508    C    0.29267993    0.50516005    0.96107989    -0.09760000
opls_145-509    C    0.24641001    0.50139996    0.96119003    -0.09720000
opls_145-510    C    0.22489005    0.49958000    0.96124997    -0.11840000
opls_543-511    C    0.50094996    0.01660007    0.59056998    0.17580000
opls_543-512    C    0.50240002    0.04345004    0.46537000    0.18010000
opls_716-513    C    0.50363004    0.06393004    0.47809002    -0.18840000
opls_716-514    C    0.01049006    0.49941004    0.63332015    -0.19650000
opls_700-515    C    0.96273003    0.50211997    0.42225988    -0.13530000
opls_145-516    C    0.49593001    0.58651996    0.96094997    -0.09780000
opls_145-517    C    0.49492995    0.60810998    0.96098009    -0.11830000
opls_145-518    C    0.50692002    0.68578001    0.03878015    -0.09770000
opls_700-519    C    0.49687997    0.94662002    0.38829987    0.06590000
opls_145-520    C    0.51497000    0.93690007    0.37405002    -0.09970000
opls_145-521    C    0.51412999    0.92249992    0.34056009    -0.16570000
opls_145-522    C    0.49530000    0.91776993    0.32059009    0.18810000
opls_145-523    C    0.47705007    0.92717997    0.33578985    -0.14140000
opls_145-524    C    0.47789998    0.94154996    0.36932998    -0.09970000
opls_142-525    C    0.48076996    0.90069001    0.25732984    0.01330000
opls_700-526    C    0.48312003    0.88576006    0.22170004    0.05960000
opls_145-527    C    0.46758992    0.88432004    0.19036004    -0.09770000
opls_145-528    C    0.46974005    0.87082006    0.15553986    -0.09780000
opls_700-529    C    0.48747997    0.85843998    0.15139003    0.06540000
opls_145-530    C    0.50291003    0.85970000    0.18315995    -0.09780000
opls_145-531    C    0.50076996    0.87321993    0.21797008    -0.09780000
opls_700-532    C    0.49007995    0.84468995    0.11345999    0.06540000
opls_145-533    C    0.47315993    0.83364999    0.09667015    -0.09780000
opls_145-534    C    0.47545000    0.82148007    0.05980989    -0.16510000
opls_916-535    C    0.49465995    0.82010995    0.03925997    0.17970000
opls_145-536    C    0.51165002    0.83076996    0.05613987    -0.16570000
opls_145-537    C    0.50939999    0.84297003    0.09295996    -0.09780000
opls_145-538    C    0.50516005    0.70732007    0.96107989    -0.09760000
opls_145-539    C    0.50139996    0.75358999    0.96119003    -0.09720000
opls_145-540    C    0.49958000    0.77510995    0.96124997    -0.11840000
opls_543-541    C    0.01660007    0.49905004    0.59056998    0.17580000
opls_543-542    C    0.04345004    0.49759998    0.46537000    0.18020000
opls_716-543    C    0.06393004    0.49636996    0.47809002    -0.18840000
opls_716-544    C    0.49941004    0.98950994    0.63332015    -0.19650000
opls_700-545    C    0.50211997    0.03726997    0.42225988    -0.13530000
opls_145-546    C    0.50406999    0.41348004    0.96094997    -0.09780000
opls_145-547    C    0.50507005    0.39189002    0.96098009    -0.11830000
opls_145-548    C    0.49307998    0.31421999    0.03878015    -0.09770000
opls_700-549    C    0.50312003    0.05337998    0.38829987    0.06590000
opls_145-550    C    0.48503000    0.06309993    0.37405002    -0.09970000
opls_145-551    C    0.48587001    0.07749992    0.34056009    -0.16570000
opls_145-552    C    0.50470000    0.08223007    0.32059009    0.18810000
opls_145-553    C    0.52294993    0.07282003    0.33578985    -0.14140000
opls_145-554    C    0.52210002    0.05845004    0.36932998    -0.09970000
opls_142-555    C    0.51923004    0.09930999    0.25732984    0.01330000
opls_700-556    C    0.51687997    0.11423994    0.22170004    0.05960000
opls_145-557    C    0.53241008    0.11567996    0.19036004    -0.09770000
opls_145-558    C    0.53025995    0.12917994    0.15553986    -0.09770000
opls_700-559    C    0.51252003    0.14156002    0.15139003    0.06540000
opls_145-560    C    0.49708997    0.14030000    0.18315995    -0.09780000
opls_145-561    C    0.49923004    0.12678007    0.21797008    -0.09780000
opls_700-562    C    0.50992005    0.15531005    0.11345999    0.06540000
opls_145-563    C    0.52684007    0.16635001    0.09667015    -0.09780000
opls_145-564    C    0.52455000    0.17851993    0.05980989    -0.16500000
opls_916-565    C    0.50534005    0.17989005    0.03925997    0.17960000
opls_145-566    C    0.48834998    0.16923004    0.05613987    -0.16570000
opls_145-567    C    0.49060001    0.15702997    0.09295996    -0.09780000
opls_145-568    C    0.49483995    0.29267993    0.96107989    -0.09760000
opls_145-569    C    0.49860004    0.24641001    0.96119003    -0.09720000
opls_145-570    C    0.50042000    0.22489005    0.96124997    -0.11840000
opls_543-571    C    0.98339993    0.50094996    0.59056998    0.17580000
opls_543-572    C    0.95654996    0.50240002    0.46537000    0.18010000
opls_716-573    C    0.93606996    0.50363004    0.47809002    -0.18840000
opls_716-574    C    0.50058996    0.01049006    0.63332015    -0.19650000
opls_700-575    C    0.49788003    0.96273003    0.42225988    -0.13530000
opls_750-576    N    0.59660997    0.99546995    0.21471994    -0.24010000
opls_750-577    N    0.85900999    0.99328998    0.50000000    -0.32650000
opls_542-578    N    0.97726997    0.02069001    0.50000000    -0.38660000
opls_239-579    N    0.69141001    0.99666997    0.50000000    -0.16120000
opls_542-580    N    0.46929004    0.00165002    0.00000000    -0.39120000
opls_542-581    N    0.50000000    0.00000000    0.06398013    -0.39020000
opls_750-582    N    0.40339003    0.00453005    0.21471994    -0.24010000
opls_750-583    N    0.14099001    0.00671002    0.50000000    -0.32650000
opls_542-584    N    0.02273003    0.97930999    0.50000000    -0.38690000
opls_239-585    N    0.30858999    0.00333003    0.50000000    -0.16120000
opls_542-586    N    0.53070996    0.99834998    0.00000000    -0.39120000
opls_750-587    N    0.00453005    0.59660997    0.21471994    -0.24010000
opls_750-588    N    0.00671002    0.85900999    0.50000000    -0.32650000
opls_542-589    N    0.97930999    0.97726997    0.50000000    -0.38690000
opls_239-590    N    0.00333003    0.69141001    0.50000000    -0.16120000
opls_542-591    N    0.99834998    0.46929004    0.00000000    -0.39120000
opls_542-592    N    0.00000000    0.50000000    0.06398013    -0.39010000
opls_750-593    N    0.99546995    0.40339003    0.21471994    -0.24010000
opls_750-594    N    0.99328998    0.14099001    0.50000000    -0.32650000
opls_542-595    N    0.02069001    0.02273003    0.50000000    -0.38680000
opls_239-596    N    0.99666997    0.30858999    0.50000000    -0.16120000
opls_542-597    N    0.00165002    0.53070996    0.00000000    -0.39100000
opls_750-598    N    0.40339003    0.00453005    0.78528006    -0.24010000
opls_542-599    N    0.50000000    0.00000000    0.93601987    -0.39020000
opls_750-600    N    0.59660997    0.99546995    0.78528006    -0.24010000
opls_750-601    N    0.99546995    0.40339003    0.78528006    -0.24010000
opls_542-602    N    0.00000000    0.50000000    0.93601987    -0.39020000
opls_750-603    N    0.00453005    0.59660997    0.78528006    -0.24010000
opls_750-604    N    0.09660997    0.49546995    0.71471994    -0.24010000
opls_750-605    N    0.35900999    0.49328998    0.00000000    -0.32650000
opls_542-606    N    0.47726997    0.52069001    0.00000000    -0.38690000
opls_239-607    N    0.19141001    0.49666997    0.00000000    -0.16110000
opls_542-608    N    0.96929004    0.50165002    0.50000000    -0.39120000
opls_542-609    N    0.00000000    0.50000000    0.56398013    -0.39010000
opls_750-610    N    0.90339003    0.50453005    0.71471994    -0.24010000
opls_750-611    N    0.64099001    0.50671002    0.00000000    -0.32650000
opls_542-612    N    0.52273003    0.47930999    0.00000000    -0.38680000
opls_239-613    N    0.80858999    0.50333003    0.00000000    -0.16120000
opls_542-614    N    0.03070996    0.49834998    0.50000000    -0.39110000
opls_750-615    N    0.50453005    0.09660997    0.71471994    -0.24010000
opls_750-616    N    0.50671002    0.35900999    0.00000000    -0.32650000
opls_542-617    N    0.47930999    0.47726997    0.00000000    -0.38680000
opls_239-618    N    0.50333003    0.19141001    0.00000000    -0.16120000
opls_542-619    N    0.49834998    0.96929004    0.50000000    -0.39110000
opls_542-620    N    0.50000000    0.00000000    0.56398013    -0.39020000
opls_750-621    N    0.49546995    0.90339003    0.71471994    -0.24010000
opls_750-622    N    0.49328998    0.64099001    0.00000000    -0.32650000
opls_542-623    N    0.52069001    0.52273003    0.00000000    -0.38680000
opls_239-624    N    0.49666997    0.80858999    0.00000000    -0.16120000
opls_542-625    N    0.50165002    0.03070996    0.50000000    -0.39120000
opls_750-626    N    0.90339003    0.50453005    0.28528006    -0.24010000
opls_542-627    N    0.00000000    0.50000000    0.43601987    -0.39020000
opls_750-628    N    0.09660997    0.49546995    0.28528006    -0.24010000
opls_750-629    N    0.49546995    0.90339003    0.28528006    -0.24010000
opls_542-630    N    0.50000000    0.00000000    0.43601987    -0.39010000
opls_750-631    N    0.50453005    0.09660997    0.28528006    -0.24010000
opls_146-632    H    0.92172007    0.99629001    0.56938992    0.10540000
opls_146-633    H    0.88360004    0.99450994    0.56928009    0.10110000
opls_146-634    H    0.82246002    0.00761003    0.43089000    0.10540000
opls_146-635    H    0.55932994    0.02973000    0.11147011    0.13320000
opls_146-636    H    0.58473000    0.02827003    0.17046002    0.07250000
opls_146-637    H    0.57650002    0.96211007    0.17772004    0.06500000
opls_146-638    H    0.55111001    0.96381004    0.11969008    0.07250000
opls_144-639    H    0.59003000    0.96687997    0.24159002    0.07280000
opls_146-640    H    0.60612996    0.95387994    0.30751013    0.06640000
opls_146-641    H    0.62956005    0.95770993    0.36868008    0.12810000
opls_146-642    H    0.64983995    0.01663007    0.31881988    0.10710000
opls_146-643    H    0.62606996    0.01297003    0.25822985    0.12870000
opls_146-644    H    0.66557001    0.95816998    0.38797005    0.06280000
opls_146-645    H    0.68672007    0.96225002    0.45309998    0.09340000
opls_146-646    H    0.67018000    0.02654996    0.45957014    0.06810000
opls_146-647    H    0.64852999    0.02265998    0.39526992    0.09340000
opls_146-648    H    0.78552006    0.00458000    0.57012989    0.07830000
opls_146-649    H    0.75357993    0.00207002    0.57001001    0.07550000
opls_146-650    H    0.71702007    0.99905004    0.56945990    0.12220000
opls_547-651    H    0.00450005    0.57752003    0.04213009    0.10000000
opls_547-652    H    0.52015000    0.99890004    0.83825985    0.11930000
opls_547-653    H    0.95618996    0.06720997    0.50000000    0.07220000
opls_547-654    H    0.92897999    0.03732007    0.50000000    0.07220000
opls_144-655    H    0.85445999    0.02498995    0.50000000    0.06580000
opls_146-656    H    0.07827993    0.00370999    0.56938992    0.10540000
opls_146-657    H    0.11639996    0.00549006    0.56928009    0.10110000
opls_146-658    H    0.17753998    0.99238997    0.43089000    0.10540000
opls_146-659    H    0.44067006    0.97027000    0.11147011    0.13320000
opls_146-660    H    0.41527000    0.97172997    0.17046002    0.07250000
opls_146-661    H    0.42349998    0.03788993    0.17772004    0.06500000
opls_146-662    H    0.44888999    0.03618996    0.11969008    0.07250000
opls_144-663    H    0.40997000    0.03312003    0.24159002    0.07280000
opls_146-664    H    0.39387004    0.04612006    0.30751013    0.06640000
opls_146-665    H    0.37043995    0.04229007    0.36868008    0.12810000
opls_146-666    H    0.35016005    0.98336993    0.31881988    0.10710000
opls_146-667    H    0.37393004    0.98702997    0.25822985    0.12870000
opls_146-668    H    0.33442999    0.04183002    0.38797005    0.06280000
opls_146-669    H    0.31327993    0.03774998    0.45309998    0.09340000
opls_146-670    H    0.32982000    0.97345004    0.45957014    0.06810000
opls_146-671    H    0.35147001    0.97734002    0.39526992    0.09340000
opls_146-672    H    0.21447994    0.99542000    0.57012989    0.07830000
opls_146-673    H    0.24642007    0.99792998    0.57001001    0.07550000
opls_146-674    H    0.28297993    0.00094996    0.56945990    0.12220000
opls_547-675    H    0.99549995    0.42247997    0.04213009    0.09990000
opls_547-676    H    0.47985000    0.00109996    0.83825985    0.11930000
opls_547-677    H    0.04381004    0.93279003    0.50000000    0.07220000
opls_547-678    H    0.07102001    0.96267993    0.50000000    0.07220000
opls_144-679    H    0.14554001    0.97501005    0.50000000    0.06580000
opls_146-680    H    0.00370999    0.92172007    0.56938992    0.10540000
opls_146-681    H    0.00549006    0.88360004    0.56928009    0.10110000
opls_146-682    H    0.99238997    0.82246002    0.43089000    0.10540000
opls_146-683    H    0.97027000    0.55932994    0.11147011    0.13320000
opls_146-684    H    0.97172997    0.58473000    0.17046002    0.07250000
opls_146-685    H    0.03788993    0.57650002    0.17772004    0.06500000
opls_146-686    H    0.03618996    0.55111001    0.11969008    0.07250000
opls_144-687    H    0.03312003    0.59003000    0.24159002    0.07280000
opls_146-688    H    0.04612006    0.60612996    0.30751013    0.06640000
opls_146-689    H    0.04229007    0.62956005    0.36868008    0.12810000
opls_146-690    H    0.98336993    0.64983995    0.31881988    0.10710000
opls_146-691    H    0.98702997    0.62606996    0.25822985    0.12870000
opls_146-692    H    0.04183002    0.66557001    0.38797005    0.06280000
opls_146-693    H    0.03774998    0.68672007    0.45309998    0.09340000
opls_146-694    H    0.97345004    0.67018000    0.45957014    0.06810000
opls_146-695    H    0.97734002    0.64852999    0.39526992    0.09340000
opls_146-696    H    0.99542000    0.78552006    0.57012989    0.07830000
opls_146-697    H    0.99792998    0.75357993    0.57001001    0.07550000
opls_146-698    H    0.00094996    0.71702007    0.56945990    0.12220000
opls_547-699    H    0.42247997    0.00450005    0.04213009    0.09990000
opls_547-700    H    0.00109996    0.52015000    0.83825985    0.11930000
opls_547-701    H    0.93279003    0.95618996    0.50000000    0.07220000
opls_547-702    H    0.96267993    0.92897999    0.50000000    0.07220000
opls_144-703    H    0.97501005    0.85445999    0.50000000    0.06580000
opls_146-704    H    0.99629001    0.07827993    0.56938992    0.10540000
opls_146-705    H    0.99450994    0.11639996    0.56928009    0.10110000
opls_146-706    H    0.00761003    0.17753998    0.43089000    0.10540000
opls_146-707    H    0.02973000    0.44067006    0.11147011    0.13320000
opls_146-708    H    0.02827003    0.41527000    0.17046002    0.07250000
opls_146-709    H    0.96211007    0.42349998    0.17772004    0.06500000
opls_146-710    H    0.96381004    0.44888999    0.11969008    0.07250000
opls_144-711    H    0.96687997    0.40997000    0.24159002    0.07280000
opls_146-712    H    0.95387994    0.39387004    0.30751013    0.06640000
opls_146-713    H    0.95770993    0.37043995    0.36868008    0.12810000
opls_146-714    H    0.01663007    0.35016005    0.31881988    0.10710000
opls_146-715    H    0.01297003    0.37393004    0.25822985    0.12870000
opls_146-716    H    0.95816998    0.33442999    0.38797005    0.06280000
opls_146-717    H    0.96225002    0.31327993    0.45309998    0.09340000
opls_146-718    H    0.02654996    0.32982000    0.45957014    0.06810000
opls_146-719    H    0.02265998    0.35147001    0.39526992    0.09340000
opls_146-720    H    0.00458000    0.21447994    0.57012989    0.07830000
opls_146-721    H    0.00207002    0.24642007    0.57001001    0.07550000
opls_146-722    H    0.99905004    0.28297993    0.56945990    0.12220000
opls_547-723    H    0.57752003    0.99549995    0.04213009    0.09990000
opls_547-724    H    0.99890004    0.47985000    0.83825985    0.11930000
opls_547-725    H    0.06720997    0.04381004    0.50000000    0.07220000
opls_547-726    H    0.03732007    0.07102001    0.50000000    0.07220000
opls_144-727    H    0.02498995    0.14554001    0.50000000    0.06580000
opls_146-728    H    0.07827993    0.00370999    0.43061008    0.10540000
opls_146-729    H    0.11639996    0.00549006    0.43071991    0.10110000
opls_146-730    H    0.17753998    0.99238997    0.56911000    0.10540000
opls_146-731    H    0.44067006    0.97027000    0.88852989    0.13330000
opls_146-732    H    0.41527000    0.97172997    0.82953998    0.07250000
opls_146-733    H    0.42349998    0.03788993    0.82227996    0.06500000
opls_146-734    H    0.44888999    0.03618996    0.88030992    0.07250000
opls_144-735    H    0.40997000    0.03312003    0.75840998    0.07280000
opls_146-736    H    0.39387004    0.04612006    0.69248987    0.06640000
opls_146-737    H    0.37043995    0.04229007    0.63131992    0.12820000
opls_146-738    H    0.35016005    0.98336993    0.68118012    0.10710000
opls_146-739    H    0.37393004    0.98702997    0.74177015    0.12880000
opls_146-740    H    0.33442999    0.04183002    0.61202995    0.06280000
opls_146-741    H    0.31327993    0.03774998    0.54690002    0.09340000
opls_146-742    H    0.32982000    0.97345004    0.54042986    0.06810000
opls_146-743    H    0.35147001    0.97734002    0.60473008    0.09340000
opls_146-744    H    0.21447994    0.99542000    0.42987011    0.07830000
opls_146-745    H    0.24642007    0.99792998    0.42998999    0.07550000
opls_146-746    H    0.28297993    0.00094996    0.43054010    0.12220000
opls_547-747    H    0.99549995    0.42247997    0.95786991    0.09990000
opls_547-748    H    0.47985000    0.00109996    0.16174015    0.11930000
opls_146-749    H    0.92172007    0.99629001    0.43061008    0.10540000
opls_146-750    H    0.88360004    0.99450994    0.43071991    0.10110000
opls_146-751    H    0.82246002    0.00761003    0.56911000    0.10540000
opls_146-752    H    0.55932994    0.02973000    0.88852989    0.13320000
opls_146-753    H    0.58473000    0.02827003    0.82953998    0.07250000
opls_146-754    H    0.57650002    0.96211007    0.82227996    0.06510000
opls_146-755    H    0.55111001    0.96381004    0.88030992    0.07250000
opls_144-756    H    0.59003000    0.96687997    0.75840998    0.07280000
opls_146-757    H    0.60612996    0.95387994    0.69248987    0.06640000
opls_146-758    H    0.62956005    0.95770993    0.63131992    0.12810000
opls_146-759    H    0.64983995    0.01663007    0.68118012    0.10710000
opls_146-760    H    0.62606996    0.01297003    0.74177015    0.12870000
opls_146-761    H    0.66557001    0.95816998    0.61202995    0.06280000
opls_146-762    H    0.68672007    0.96225002    0.54690002    0.09340000
opls_146-763    H    0.67018000    0.02654996    0.54042986    0.06810000
opls_146-764    H    0.64852999    0.02265998    0.60473008    0.09340000
opls_146-765    H    0.78552006    0.00458000    0.42987011    0.07840000
opls_146-766    H    0.75357993    0.00207002    0.42998999    0.07550000
opls_146-767    H    0.71702007    0.99905004    0.43054010    0.12220000
opls_547-768    H    0.00450005    0.57752003    0.95786991    0.09990000
opls_547-769    H    0.52015000    0.99890004    0.16174015    0.11930000
opls_146-770    H    0.99629001    0.07827993    0.43061008    0.10540000
opls_146-771    H    0.99450994    0.11639996    0.43071991    0.10110000
opls_146-772    H    0.00761003    0.17753998    0.56911000    0.10540000
opls_146-773    H    0.02973000    0.44067006    0.88852989    0.13320000
opls_146-774    H    0.02827003    0.41527000    0.82953998    0.07250000
opls_146-775    H    0.96211007    0.42349998    0.82227996    0.06500000
opls_146-776    H    0.96381004    0.44888999    0.88030992    0.07250000
opls_144-777    H    0.96687997    0.40997000    0.75840998    0.07280000
opls_146-778    H    0.95387994    0.39387004    0.69248987    0.06640000
opls_146-779    H    0.95770993    0.37043995    0.63131992    0.12810000
opls_146-780    H    0.01663007    0.35016005    0.68118012    0.10710000
opls_146-781    H    0.01297003    0.37393004    0.74177015    0.12870000
opls_146-782    H    0.95816998    0.33442999    0.61202995    0.06280000
opls_146-783    H    0.96225002    0.31327993    0.54690002    0.09340000
opls_146-784    H    0.02654996    0.32982000    0.54042986    0.06810000
opls_146-785    H    0.02265998    0.35147001    0.60473008    0.09340000
opls_146-786    H    0.00458000    0.21447994    0.42987011    0.07830000
opls_146-787    H    0.00207002    0.24642007    0.42998999    0.07550000
opls_146-788    H    0.99905004    0.28297993    0.43054010    0.12220000
opls_547-789    H    0.57752003    0.99549995    0.95786991    0.09990000
opls_547-790    H    0.99890004    0.47985000    0.16174015    0.11930000
opls_146-791    H    0.00370999    0.92172007    0.43061008    0.10540000
opls_146-792    H    0.00549006    0.88360004    0.43071991    0.10110000
opls_146-793    H    0.99238997    0.82246002    0.56911000    0.10550000
opls_146-794    H    0.97027000    0.55932994    0.88852989    0.13320000
opls_146-795    H    0.97172997    0.58473000    0.82953998    0.07250000
opls_146-796    H    0.03788993    0.57650002    0.82227996    0.06500000
opls_146-797    H    0.03618996    0.55111001    0.88030992    0.07250000
opls_144-798    H    0.03312003    0.59003000    0.75840998    0.07280000
opls_146-799    H    0.04612006    0.60612996    0.69248987    0.06640000
opls_146-800    H    0.04229007    0.62956005    0.63131992    0.12810000
opls_146-801    H    0.98336993    0.64983995    0.68118012    0.10710000
opls_146-802    H    0.98702997    0.62606996    0.74177015    0.12870000
opls_146-803    H    0.04183002    0.66557001    0.61202995    0.06280000
opls_146-804    H    0.03774998    0.68672007    0.54690002    0.09340000
opls_146-805    H    0.97345004    0.67018000    0.54042986    0.06810000
opls_146-806    H    0.97734002    0.64852999    0.60473008    0.09340000
opls_146-807    H    0.99542000    0.78552006    0.42987011    0.07830000
opls_146-808    H    0.99792998    0.75357993    0.42998999    0.07550000
opls_146-809    H    0.00094996    0.71702007    0.43054010    0.12230000
opls_547-810    H    0.42247997    0.00450005    0.95786991    0.09990000
opls_547-811    H    0.00109996    0.52015000    0.16174015    0.11930000
opls_146-812    H    0.42172007    0.49629001    0.06938992    0.10540000
opls_146-813    H    0.38360004    0.49450994    0.06928009    0.10110000
opls_146-814    H    0.32246002    0.50761003    0.93089000    0.10540000
opls_146-815    H    0.05932994    0.52973000    0.61147011    0.13330000
opls_146-816    H    0.08473000    0.52827003    0.67046002    0.07250000
opls_146-817    H    0.07650002    0.46211007    0.67772004    0.06500000
opls_146-818    H    0.05111001    0.46381004    0.61969008    0.07250000
opls_144-819    H    0.09003000    0.46687997    0.74159002    0.07280000
opls_146-820    H    0.10612996    0.45387994    0.80751013    0.06640000
opls_146-821    H    0.12956005    0.45770993    0.86868008    0.12810000
opls_146-822    H    0.14983995    0.51663007    0.81881988    0.10710000
opls_146-823    H    0.12606996    0.51297003    0.75822985    0.12870000
opls_146-824    H    0.16557001    0.45816998    0.88797005    0.06280000
opls_146-825    H    0.18672007    0.46225002    0.95309998    0.09340000
opls_146-826    H    0.17018000    0.52654996    0.95957014    0.06810000
opls_146-827    H    0.14852999    0.52265998    0.89526992    0.09340000
opls_146-828    H    0.28552006    0.50458000    0.07012989    0.07830000
opls_146-829    H    0.25357993    0.50207002    0.07001001    0.07550000
opls_146-830    H    0.21702007    0.49905004    0.06945990    0.12220000
opls_547-831    H    0.50450005    0.07752003    0.54213009    0.09990000
opls_547-832    H    0.02015000    0.49890004    0.33825985    0.11930000
opls_547-833    H    0.45618996    0.56720997    0.00000000    0.07220000
opls_547-834    H    0.42897999    0.53732007    0.00000000    0.07220000
opls_144-835    H    0.35445999    0.52498995    0.00000000    0.06580000
opls_146-836    H    0.57827993    0.50370999    0.06938992    0.10540000
opls_146-837    H    0.61639996    0.50549006    0.06928009    0.10110000
opls_146-838    H    0.67753998    0.49238997    0.93089000    0.10540000
opls_146-839    H    0.94067006    0.47027000    0.61147011    0.13320000
opls_146-840    H    0.91527000    0.47172997    0.67046002    0.07250000
opls_146-841    H    0.92349998    0.53788993    0.67772004    0.06500000
opls_146-842    H    0.94888999    0.53618996    0.61969008    0.07250000
opls_144-843    H    0.90997000    0.53312003    0.74159002    0.07280000
opls_146-844    H    0.89387004    0.54612006    0.80751013    0.06640000
opls_146-845    H    0.87043995    0.54229007    0.86868008    0.12810000
opls_146-846    H    0.85016005    0.48336993    0.81881988    0.10710000
opls_146-847    H    0.87393004    0.48702997    0.75822985    0.12870000
opls_146-848    H    0.83442999    0.54183002    0.88797005    0.06280000
opls_146-849    H    0.81327993    0.53774998    0.95309998    0.09340000
opls_146-850    H    0.82982000    0.47345004    0.95957014    0.06810000
opls_146-851    H    0.85147001    0.47734002    0.89526992    0.09340000
opls_146-852    H    0.71447994    0.49542000    0.07012989    0.07830000
opls_146-853    H    0.74642007    0.49792998    0.07001001    0.07550000
opls_146-854    H    0.78297993    0.50094996    0.06945990    0.12220000
opls_547-855    H    0.49549995    0.92247997    0.54213009    0.09990000
opls_547-856    H    0.97985000    0.50109996    0.33825985    0.11930000
opls_547-857    H    0.54381004    0.43279003    0.00000000    0.07220000
opls_547-858    H    0.57102001    0.46267993    0.00000000    0.07220000
opls_144-859    H    0.64554001    0.47501005    0.00000000    0.06580000
opls_146-860    H    0.50370999    0.42172007    0.06938992    0.10550000
opls_146-861    H    0.50549006    0.38360004    0.06928009    0.10110000
opls_146-862    H    0.49238997    0.32246002    0.93089000    0.10540000
opls_146-863    H    0.47027000    0.05932994    0.61147011    0.13320000
opls_146-864    H    0.47172997    0.08473000    0.67046002    0.07250000
opls_146-865    H    0.53788993    0.07650002    0.67772004    0.06500000
opls_146-866    H    0.53618996    0.05111001    0.61969008    0.07250000
opls_144-867    H    0.53312003    0.09003000    0.74159002    0.07280000
opls_146-868    H    0.54612006    0.10612996    0.80751013    0.06640000
opls_146-869    H    0.54229007    0.12956005    0.86868008    0.12810000
opls_146-870    H    0.48336993    0.14983995    0.81881988    0.10710000
opls_146-871    H    0.48702997    0.12606996    0.75822985    0.12870000
opls_146-872    H    0.54183002    0.16557001    0.88797005    0.06280000
opls_146-873    H    0.53774998    0.18672007    0.95309998    0.09340000
opls_146-874    H    0.47345004    0.17018000    0.95957014    0.06810000
opls_146-875    H    0.47734002    0.14852999    0.89526992    0.09340000
opls_146-876    H    0.49542000    0.28552006    0.07012989    0.07830000
opls_146-877    H    0.49792998    0.25357993    0.07001001    0.07550000
opls_146-878    H    0.50094996    0.21702007    0.06945990    0.12220000
opls_547-879    H    0.92247997    0.50450005    0.54213009    0.09990000
opls_547-880    H    0.50109996    0.02015000    0.33825985    0.11930000
opls_547-881    H    0.43279003    0.45618996    0.00000000    0.07220000
opls_547-882    H    0.46267993    0.42897999    0.00000000    0.07220000
opls_144-883    H    0.47501005    0.35445999    0.00000000    0.06580000
opls_146-884    H    0.49629001    0.57827993    0.06938992    0.10540000
opls_146-885    H    0.49450994    0.61639996    0.06928009    0.10110000
opls_146-886    H    0.50761003    0.67753998    0.93089000    0.10540000
opls_146-887    H    0.52973000    0.94067006    0.61147011    0.13320000
opls_146-888    H    0.52827003    0.91527000    0.67046002    0.07250000
opls_146-889    H    0.46211007    0.92349998    0.67772004    0.06510000
opls_146-890    H    0.46381004    0.94888999    0.61969008    0.07250000
opls_144-891    H    0.46687997    0.90997000    0.74159002    0.07280000
opls_146-892    H    0.45387994    0.89387004    0.80751013    0.06640000
opls_146-893    H    0.45770993    0.87043995    0.86868008    0.12810000
opls_146-894    H    0.51663007    0.85016005    0.81881988    0.10710000
opls_146-895    H    0.51297003    0.87393004    0.75822985    0.12870000
opls_146-896    H    0.45816998    0.83442999    0.88797005    0.06280000
opls_146-897    H    0.46225002    0.81327993    0.95309998    0.09340000
opls_146-898    H    0.52654996    0.82982000    0.95957014    0.06810000
opls_146-899    H    0.52265998    0.85147001    0.89526992    0.09340000
opls_146-900    H    0.50458000    0.71447994    0.07012989    0.07830000
opls_146-901    H    0.50207002    0.74642007    0.07001001    0.07550000
opls_146-902    H    0.49905004    0.78297993    0.06945990    0.12220000
opls_547-903    H    0.07752003    0.49549995    0.54213009    0.09990000
opls_547-904    H    0.49890004    0.97985000    0.33825985    0.11930000
opls_547-905    H    0.56720997    0.54381004    0.00000000    0.07220000
opls_547-906    H    0.53732007    0.57102001    0.00000000    0.07220000
opls_144-907    H    0.52498995    0.64554001    0.00000000    0.06580000
opls_146-908    H    0.57827993    0.50370999    0.93061008    0.10540000
opls_146-909    H    0.61639996    0.50549006    0.93071991    0.10110000
opls_146-910    H    0.67753998    0.49238997    0.06911000    0.10540000
opls_146-911    H    0.94067006    0.47027000    0.38852989    0.13320000
opls_146-912    H    0.91527000    0.47172997    0.32953998    0.07250000
opls_146-913    H    0.92349998    0.53788993    0.32227996    0.06500000
opls_146-914    H    0.94888999    0.53618996    0.38030992    0.07250000
opls_144-915    H    0.90997000    0.53312003    0.25840998    0.07280000
opls_146-916    H    0.89387004    0.54612006    0.19248987    0.06640000
opls_146-917    H    0.87043995    0.54229007    0.13131992    0.12810000
opls_146-918    H    0.85016005    0.48336993    0.18118012    0.10710000
opls_146-919    H    0.87393004    0.48702997    0.24177015    0.12870000
opls_146-920    H    0.83442999    0.54183002    0.11202995    0.06280000
opls_146-921    H    0.81327993    0.53774998    0.04690002    0.09340000
opls_146-922    H    0.82982000    0.47345004    0.04042986    0.06810000
opls_146-923    H    0.85147001    0.47734002    0.10473008    0.09340000
opls_146-924    H    0.71447994    0.49542000    0.92987011    0.07830000
opls_146-925    H    0.74642007    0.49792998    0.92998999    0.07550000
opls_146-926    H    0.78297993    0.50094996    0.93054010    0.12220000
opls_547-927    H    0.49549995    0.92247997    0.45786991    0.09990000
opls_547-928    H    0.97985000    0.50109996    0.66174015    0.11930000
opls_146-929    H    0.42172007    0.49629001    0.93061008    0.10540000
opls_146-930    H    0.38360004    0.49450994    0.93071991    0.10110000
opls_146-931    H    0.32246002    0.50761003    0.06911000    0.10540000
opls_146-932    H    0.05932994    0.52973000    0.38852989    0.13320000
opls_146-933    H    0.08473000    0.52827003    0.32953998    0.07250000
opls_146-934    H    0.07650002    0.46211007    0.32227996    0.06510000
opls_146-935    H    0.05111001    0.46381004    0.38030992    0.07250000
opls_144-936    H    0.09003000    0.46687997    0.25840998    0.07280000
opls_146-937    H    0.10612996    0.45387994    0.19248987    0.06640000
opls_146-938    H    0.12956005    0.45770993    0.13131992    0.12810000
opls_146-939    H    0.14983995    0.51663007    0.18118012    0.10710000
opls_146-940    H    0.12606996    0.51297003    0.24177015    0.12870000
opls_146-941    H    0.16557001    0.45816998    0.11202995    0.06280000
opls_146-942    H    0.18672007    0.46225002    0.04690002    0.09340000
opls_146-943    H    0.17018000    0.52654996    0.04042986    0.06810000
opls_146-944    H    0.14852999    0.52265998    0.10473008    0.09340000
opls_146-945    H    0.28552006    0.50458000    0.92987011    0.07830000
opls_146-946    H    0.25357993    0.50207002    0.92998999    0.07550000
opls_146-947    H    0.21702007    0.49905004    0.93054010    0.12220000
opls_547-948    H    0.50450005    0.07752003    0.45786991    0.09990000
opls_547-949    H    0.02015000    0.49890004    0.66174015    0.11930000
opls_146-950    H    0.49629001    0.57827993    0.93061008    0.10540000
opls_146-951    H    0.49450994    0.61639996    0.93071991    0.10110000
opls_146-952    H    0.50761003    0.67753998    0.06911000    0.10540000
opls_146-953    H    0.52973000    0.94067006    0.38852989    0.13320000
opls_146-954    H    0.52827003    0.91527000    0.32953998    0.07250000
opls_146-955    H    0.46211007    0.92349998    0.32227996    0.06500000
opls_146-956    H    0.46381004    0.94888999    0.38030992    0.07250000
opls_144-957    H    0.46687997    0.90997000    0.25840998    0.07280000
opls_146-958    H    0.45387994    0.89387004    0.19248987    0.06640000
opls_146-959    H    0.45770993    0.87043995    0.13131992    0.12820000
opls_146-960    H    0.51663007    0.85016005    0.18118012    0.10720000
opls_146-961    H    0.51297003    0.87393004    0.24177015    0.12870000
opls_146-962    H    0.45816998    0.83442999    0.11202995    0.06280000
opls_146-963    H    0.46225002    0.81327993    0.04690002    0.09340000
opls_146-964    H    0.52654996    0.82982000    0.04042986    0.06810000
opls_146-965    H    0.52265998    0.85147001    0.10473008    0.09340000
opls_146-966    H    0.50458000    0.71447994    0.92987011    0.07830000
opls_146-967    H    0.50207002    0.74642007    0.92998999    0.07550000
opls_146-968    H    0.49905004    0.78297993    0.93054010    0.12220000
opls_547-969    H    0.07752003    0.49549995    0.45786991    0.09990000
opls_547-970    H    0.49890004    0.97985000    0.66174015    0.11930000
opls_146-971    H    0.50370999    0.42172007    0.93061008    0.10540000
opls_146-972    H    0.50549006    0.38360004    0.93071991    0.10110000
opls_146-973    H    0.49238997    0.32246002    0.06911000    0.10540000
opls_146-974    H    0.47027000    0.05932994    0.38852989    0.13320000
opls_146-975    H    0.47172997    0.08473000    0.32953998    0.07250000
opls_146-976    H    0.53788993    0.07650002    0.32227996    0.06500000
opls_146-977    H    0.53618996    0.05111001    0.38030992    0.07250000
opls_144-978    H    0.53312003    0.09003000    0.25840998    0.07280000
opls_146-979    H    0.54612006    0.10612996    0.19248987    0.06640000
opls_146-980    H    0.54229007    0.12956005    0.13131992    0.12810000
opls_146-981    H    0.48336993    0.14983995    0.18118012    0.10710000
opls_146-982    H    0.48702997    0.12606996    0.24177015    0.12870000
opls_146-983    H    0.54183002    0.16557001    0.11202995    0.06280000
opls_146-984    H    0.53774998    0.18672007    0.04690002    0.09340000
opls_146-985    H    0.47345004    0.17018000    0.04042986    0.06820000
opls_146-986    H    0.47734002    0.14852999    0.10473008    0.09340000
opls_146-987    H    0.49542000    0.28552006    0.92987011    0.07830000
opls_146-988    H    0.49792998    0.25357993    0.92998999    0.07550000
opls_146-989    H    0.50094996    0.21702007    0.93054010    0.12220000
opls_547-990    H    0.92247997    0.50450005    0.45786991    0.09990000
opls_547-991    H    0.50109996    0.02015000    0.66174015    0.11930000
Cu2+-992    Cu    0.50000000    0.50000000    0.00000000    0.63400000
Cu2+-993    Cu    0.00000000    0.50000000    0.50000000    0.65140000
Cu2+-994    Cu    0.50000000    0.00000000    0.50000000    0.65120000
Cu2+-995    Cu    0.00000000    0.00000000    0.50000000    0.63410000
Cu2+-996    Cu    0.50000000    0.00000000    0.00000000    0.65120000
Cu2+-997    Cu    0.00000000    0.50000000    0.00000000    0.65120000
