#======================================================================
# Crystal Data Generated By AuToFF
#----------------------------------------------------------------------

data_AuToFF_phase_1

_cell_length_a                         47.7000
_cell_length_b                         47.7000
_cell_length_c                         8.0000
_cell_angle_alpha                      90.00
_cell_angle_beta                       90.00
_cell_angle_gamma                      120.00
_symmetry_space_group_name_H-M_alt     'P 1'
_symmetry_space_group_IT_number        1

loop_
_space_group_symop_operation_xyz
   'x, y, z'

loop_
   _atom_site_label
   _atom_site_type_symbol
   _atom_site_fract_x
   _atom_site_fract_y
   _atom_site_fract_z
   _atom_site_charge
opls_145-0    C    0.21152011    0.07542010    0.00000000    -0.08440000
opls_145-1    C    0.17968002    0.04721999    0.00000000    -0.08650000
opls_916-2    C    0.17595999    0.01547008    0.00000000    0.22310000
opls_145-3    C    0.20418999    0.01179005    0.00000000    -0.07420000
opls_145-4    C    0.23604003    0.03998992    0.00000000    -0.07690000
opls_700-5    C    0.23965006    0.07187999    0.00000000    0.08490000
opls_916-6    C    0.14050007    0.95539007    0.00000000    0.22460000
opls_916-7    C    0.11598003    0.99082001    0.00000000    0.22190000
opls_145-8    C    0.11959985    0.02269991    0.00000000    -0.07420000
opls_145-9    C    0.09137011    0.02639011    0.00000000    -0.07690000
opls_700-10    C    0.05951995    0.99819000    0.00000000    0.07260000
opls_145-11    C    0.05590992    0.96629993    0.00000000    -0.07690000
opls_145-12    C    0.08414000    0.96260997    0.00000000    -0.07420000
opls_145-13    C    0.10866004    0.92718003    0.00000000    -0.07420000
opls_145-14    C    0.10504000    0.89530013    0.00000000    -0.07680000
opls_700-15    C    0.13317001    0.89175009    0.00000000    0.07170000
opls_145-16    C    0.16502010    0.91996013    0.00000000    -0.08440000
opls_145-17    C    0.16873014    0.95170011    0.00000000    -0.07410000
opls_700-18    C    0.27150001    0.10008010    0.00000000    0.08490000
opls_145-19    C    0.29972996    0.09638990    0.00000000    -0.05310000
opls_700-20    C    0.33157006    0.12459001    0.00000000    0.06480000
opls_145-21    C    0.33519015    0.15648009    0.00000000    -0.05300000
opls_700-22    C    0.30705987    0.16001996    0.00000000    0.06940000
opls_145-23    C    0.27521004    0.13182009    0.00000000    -0.05510000
opls_142-24    C    0.31067011    0.19191003    0.00000000    0.03960000
opls_142-25    C    0.35980006    0.12090998    0.00000000    0.03940000
opls_145-26    C    0.28605986    0.22747989    0.00000000    0.22770000
opls_145-27    C    0.31789996    0.25568000    0.00000000    -0.09720000
opls_145-28    C    0.32160992    0.28742991    0.00000000    -0.07690000
opls_700-29    C    0.29337992    0.29110994    0.00000000    0.07890000
opls_145-30    C    0.26153994    0.26291007    0.00000000    -0.07690000
opls_145-31    C    0.25792000    0.23102993    0.00000000    -0.09660000
opls_700-32    C    0.91517999    0.98464006    0.00000000    0.08490000
opls_145-33    C    0.91155990    0.95274999    0.00000000    -0.07690000
opls_145-34    C    0.93978991    0.94906996    0.00000000    -0.09670000
opls_145-35    C    0.97164007    0.97727007    0.00000000    0.23060000
opls_145-36    C    0.97525004    0.00914997    0.00000000    -0.09670000
opls_145-37    C    0.94701997    0.01283993    0.00000000    -0.07690000
opls_142-38    C    0.03170991    0.00177998    0.00000000    0.03850000
opls_142-39    C    0.12935992    0.86015002    0.00000000    0.03990000
opls_145-40    C    0.41977996    0.14556998    0.00000000    0.22770000
opls_145-41    C    0.15397990    0.82457992    0.00000000    0.22780000
opls_145-42    C    0.41615987    0.11367991    0.00000000    -0.09670000
opls_145-43    C    0.44440006    0.11000012    0.00000000    -0.07690000
opls_700-44    C    0.47624004    0.13819999    0.00000000    0.08490000
opls_145-45    C    0.47985986    0.17007989    0.00000000    -0.07690000
opls_145-46    C    0.45163012    0.17377009    0.00000000    -0.09670000
opls_145-47    C    0.12213007    0.79638005    0.00000000    -0.09720000
opls_145-48    C    0.11842010    0.76463014    0.00000000    -0.07680000
opls_700-49    C    0.14665011    0.76095011    0.00000000    0.07890000
opls_145-50    C    0.17849008    0.78914998    0.00000000    -0.07680000
opls_145-51    C    0.18210996    0.82104005    0.00000000    -0.09660000
opls_700-52    C    0.14303002    0.72906004    0.00000000    0.08490000
opls_700-53    C    0.50437005    0.13464995    0.00000000    0.08490000
opls_145-54    C    0.11118992    0.70085993    0.00000000    -0.08430000
opls_145-55    C    0.10747003    0.66911994    0.00000000    -0.09650000
opls_145-56    C    0.13569990    0.66542998    0.00000000    0.23050000
opls_145-57    C    0.16755006    0.69363010    0.00000000    -0.09660000
opls_145-58    C    0.17117002    0.72551992    0.00000000    -0.07680000
opls_145-59    C    0.50076008    0.10277005    0.00000000    -0.07690000
opls_145-60    C    0.52899015    0.09908009    0.00000000    -0.09670000
opls_145-61    C    0.56082992    0.12727996    0.00000000    0.23060000
opls_145-62    C    0.56445000    0.15917003    0.00000000    -0.09670000
opls_145-63    C    0.53621993    0.16285999    0.00000000    -0.07690000
opls_142-64    C    0.16021994    0.63000004    0.00000000    0.03970000
opls_142-65    C    0.62091008    0.15180004    0.00000000    0.04020000
opls_700-66    C    0.15660991    0.59810997    0.00000000    0.06490000
opls_700-67    C    0.64904003    0.14825992    0.00000000    0.06950000
opls_145-68    C    0.12476008    0.56991010    0.00000000    -0.05310000
opls_700-69    C    0.12114999    0.53802995    0.00000000    0.06490000
opls_145-70    C    0.14938006    0.53434000    0.00000000    -0.05310000
opls_700-71    C    0.18122016    0.56254011    0.00000000    0.08490000
opls_145-72    C    0.18483992    0.59442994    0.00000000    -0.05310000
opls_700-73    C    0.20935010    0.55900000    0.00000000    0.08490000
opls_145-74    C    0.20573987    0.52710992    0.00000000    -0.07690000
opls_145-75    C    0.23396999    0.52343013    0.00000000    -0.07420000
opls_916-76    C    0.26580997    0.55163000    0.00000000    0.22170000
opls_145-77    C    0.26943006    0.58352007    0.00000000    -0.07420000
opls_145-78    C    0.24120005    0.58720011    0.00000000    -0.07690000
opls_916-79    C    0.29033001    0.51620006    0.00000000    0.22480000
opls_916-80    C    0.32579007    0.57629000    0.00000000    0.22310000
opls_145-81    C    0.25848991    0.48799995    0.00000000    -0.07420000
opls_145-82    C    0.25487015    0.45611012    0.00000000    -0.09670000
opls_145-83    C    0.28309995    0.45243009    0.00000000    0.23870000
opls_145-84    C    0.31494999    0.48062996    0.00000000    -0.09670000
opls_145-85    C    0.31856008    0.51251010    0.00000000    -0.07420000
opls_145-86    C    0.35401994    0.57260004    0.00000000    -0.07420000
opls_145-87    C    0.38586998    0.60079991    0.00000000    -0.07690000
opls_700-88    C    0.38948000    0.63268999    0.00000000    0.06940000
opls_145-89    C    0.36135006    0.63623010    0.00000000    -0.08440000
opls_145-90    C    0.32949990    0.60802999    0.00000000    -0.08650000
opls_142-91    C    0.42132995    0.66089010    0.00000000    0.04020000
opls_145-92    C    0.45689008    0.72084012    0.00000000    0.22770000
opls_145-93    C    0.48502009    0.71729008    0.00000000    -0.09720000
opls_145-94    C    0.51686012    0.74550012    0.00000000    -0.08430000
opls_700-95    C    0.52058001    0.77724010    0.00000000    0.08480000
opls_145-96    C    0.49234994    0.78093006    0.00000000    -0.07690000
opls_145-97    C    0.46050005    0.75272002    0.00000000    -0.09670000
opls_700-98    C    0.55241999    0.80543997    0.00000000    0.08480000
opls_145-99    C    0.58055005    0.80190010    0.00000000    -0.08440000
opls_145-100    C    0.61240009    0.83009997    0.00000000    -0.09720000
opls_145-101    C    0.61610991    0.86183995    0.00000000    0.22790000
opls_145-102    C    0.58788017    0.86553015    0.00000000    -0.09670000
opls_145-103    C    0.55604007    0.83733004    0.00000000    -0.07690000
opls_142-104    C    0.65157010    0.92193014    0.00000000    0.03940000
opls_700-105    C    0.68341993    0.95013001    0.00000000    0.06490000
opls_145-106    C    0.71164993    0.94644997    0.00000000    -0.11970000
opls_145-107    C    0.74349003    0.97465009    0.00000000    0.23510000
opls_145-108    C    0.74711000    0.00653991    0.00000000    -0.11970000
opls_700-109    C    0.71887999    0.01021995    0.00000000    0.08490000
opls_145-110    C    0.68702995    0.98202008    0.00000000    -0.05310000
opls_700-111    C    0.72259008    0.04197010    0.00000000    0.08490000
opls_145-112    C    0.64542006    0.11637010    0.00000000    -0.07690000
opls_145-113    C    0.67365001    0.11267990    0.00000000    -0.07420000
opls_916-114    C    0.70549989    0.14088993    0.00000000    0.22170000
opls_145-115    C    0.70912005    0.17277008    0.00000000    -0.07420000
opls_145-116    C    0.68087991    0.17646004    0.00000000    -0.07680000
opls_145-117    C    0.75443991    0.07016997    0.00000000    -0.07690000
opls_145-118    C    0.75805000    0.10205011    0.00000000    -0.07420000
opls_916-119    C    0.72981993    0.10574007    0.00000000    0.22990000
opls_145-120    C    0.69796998    0.07753996    0.00000000    -0.07410000
opls_145-121    C    0.69435996    0.04564989    0.00000000    -0.07690000
opls_916-122    C    0.76558013    0.16540009    0.00000000    0.22310000
opls_145-123    C    0.79357997    0.16152010    0.00000000    -0.07420000
opls_145-124    C    0.82543001    0.18971997    0.00000000    -0.09670000
opls_145-125    C    0.82927006    0.22180007    0.00000000    0.23690000
opls_145-126    C    0.80081003    0.22529007    0.00000000    -0.09670000
opls_145-127    C    0.76896993    0.19708996    0.00000000    -0.07420000
opls_142-128    C    0.08929990    0.50981992    0.00000000    0.03940000
opls_145-129    C    0.05383997    0.44973990    0.00000000    0.22770000
opls_145-130    C    0.02560997    0.45341994    0.00000000    -0.09670000
opls_145-131    C    0.99376999    0.42522006    0.00000000    -0.07690000
opls_700-132    C    0.99014990    0.39332999    0.00000000    0.08480000
opls_145-133    C    0.01827997    0.38979012    0.00000000    -0.08440000
opls_145-134    C    0.05013001    0.41798999    0.00000000    -0.09720000
opls_700-135    C    0.29700001    0.32300001    0.00000000    0.08480000
opls_700-136    C    0.88704007    0.98817993    0.00000000    0.08490000
opls_700-137    C    0.95831014    0.36513012    0.00000000    0.08480000
opls_145-138    C    0.93008006    0.36882008    0.00000000    -0.07690000
opls_145-139    C    0.89822990    0.34061997    0.00000000    -0.07690000
opls_700-140    C    0.89461988    0.30872990    0.00000000    0.06940000
opls_145-141    C    0.92274994    0.30519003    0.00000000    -0.08440000
opls_145-142    C    0.95458992    0.33338990    0.00000000    -0.08440000
opls_145-143    C    0.89065995    0.02007000    0.00000000    -0.07690000
opls_145-144    C    0.86242994    0.02375004    0.00000000    -0.07690000
opls_700-145    C    0.83057999    0.99554992    0.00000000    0.06940000
opls_145-146    C    0.82697009    0.96366010    0.00000000    -0.07690000
opls_145-147    C    0.85520009    0.95998006    0.00000000    -0.07690000
opls_145-148    C    0.32884010    0.35120013    0.00000000    -0.08440000
opls_145-149    C    0.33255992    0.38295003    0.00000000    -0.07680000
opls_700-150    C    0.30433013    0.38663007    0.00000000    0.06490000
opls_145-151    C    0.27247997    0.35842996    0.00000000    -0.07680000
opls_145-152    C    0.26887006    0.32654013    0.00000000    -0.07680000
opls_142-153    C    0.80245005    0.99909004    0.00000000    0.04020000
opls_142-154    C    0.30794015    0.41852014    0.00000000    0.03960000
opls_142-155    C    0.86277005    0.28053003    0.00000000    0.03970000
opls_145-156    C    0.27090001    0.62188010    0.69856000    -0.08440000
opls_145-157    C    0.23905013    0.59367006    0.69856000    -0.08650000
opls_916-158    C    0.23534009    0.56193008    0.69856000    0.22170000
opls_145-159    C    0.26356996    0.55824012    0.69856000    -0.07420000
opls_145-160    C    0.29541993    0.58644992    0.69856000    -0.07690000
opls_700-161    C    0.29903002    0.61833006    0.69856000    0.08490000
opls_916-162    C    0.19988003    0.50184014    0.69856000    0.22460000
opls_916-163    C    0.17535999    0.53727008    0.69856000    0.22310000
opls_145-164    C    0.17897995    0.56915991    0.69856000    -0.07420000
opls_145-165    C    0.15074995    0.57283994    0.69856000    -0.07690000
opls_700-166    C    0.11890012    0.54464007    0.69856000    0.07240000
opls_145-167    C    0.11529003    0.51275993    0.69856000    -0.07690000
opls_145-168    C    0.14351989    0.50906997    0.69856000    -0.07420000
opls_145-169    C    0.16803008    0.47364003    0.69856000    -0.07420000
opls_145-170    C    0.16442005    0.44174995    0.69856000    -0.07680000
opls_700-171    C    0.19255012    0.43821008    0.69856000    0.07160000
opls_145-172    C    0.22439995    0.46640995    0.69856000    -0.08440000
opls_145-173    C    0.22811003    0.49816010    0.69856000    -0.07410000
opls_700-174    C    0.33088006    0.64652993    0.69856000    0.08500000
opls_145-175    C    0.35910998    0.64285014    0.69856000    -0.05310000
opls_700-176    C    0.39094995    0.67105001    0.69856000    0.06480000
opls_145-177    C    0.39457004    0.70294008    0.69856000    -0.05300000
opls_700-178    C    0.36642991    0.70647995    0.69856000    0.06940000
opls_145-179    C    0.33458994    0.67828008    0.69856000    -0.05510000
opls_142-180    C    0.37005000    0.73837002    0.69856000    0.03960000
opls_142-181    C    0.41917996    0.66736998    0.69856000    0.03940000
opls_145-182    C    0.34543002    0.77394013    0.69856000    0.22770000
opls_145-183    C    0.37728006    0.80214000    0.69856000    -0.09720000
opls_145-184    C    0.38099015    0.83389015    0.69856000    -0.07680000
opls_700-185    C    0.35276002    0.83756994    0.69856000    0.07890000
opls_145-186    C    0.32092004    0.80937007    0.69856000    -0.07690000
opls_145-187    C    0.31729996    0.77748000    0.69856000    -0.09660000
opls_700-188    C    0.97455010    0.53109013    0.69856000    0.08500000
opls_145-189    C    0.97094000    0.49920999    0.69856000    -0.07690000
opls_145-190    C    0.99917008    0.49552003    0.69856000    -0.09670000
opls_145-191    C    0.03102003    0.52372014    0.69856000    0.23050000
opls_145-192    C    0.03462993    0.55560997    0.69856000    -0.09680000
opls_145-193    C    0.00640007    0.55929993    0.69856000    -0.07690000
opls_142-194    C    0.09109001    0.54823998    0.69856000    0.03850000
opls_142-195    C    0.18874002    0.40661002    0.69856000    0.03990000
opls_145-196    C    0.47916013    0.69202005    0.69856000    0.22900000
opls_145-197    C    0.21334994    0.37103992    0.69856000    0.22770000
opls_145-198    C    0.47554009    0.66014015    0.69856000    -0.09670000
opls_145-199    C    0.50377005    0.65644995    0.69856000    -0.07690000
opls_700-200    C    0.53562000    0.68465006    0.69856000    0.08490000
opls_145-201    C    0.53923002    0.71654013    0.69856000    -0.07680000
opls_145-202    C    0.51099990    0.72021992    0.69856000    -0.09670000
opls_145-203    C    0.18151003    0.34283012    0.69856000    -0.09720000
opls_145-204    C    0.17779987    0.31108989    0.69856000    -0.07680000
opls_700-205    C    0.20603000    0.30741010    0.69856000    0.07890000
opls_145-206    C    0.23786998    0.33560997    0.69856000    -0.07680000
opls_145-207    C    0.24149013    0.36749012    0.69856000    -0.09670000
opls_700-208    C    0.20240991    0.27552003    0.69856000    0.08480000
opls_700-209    C    0.56374994    0.68110995    0.69856000    0.08490000
opls_145-210    C    0.17057002    0.24731992    0.69856000    -0.08440000
opls_145-211    C    0.16685000    0.21557001    0.69856000    -0.09660000
opls_145-212    C    0.19508000    0.21188998    0.69856000    0.23070000
opls_145-213    C    0.22692995    0.24009009    0.69856000    -0.09660000
opls_145-214    C    0.23054006    0.27197992    0.69856000    -0.07680000
opls_145-215    C    0.56014004    0.64922012    0.69856000    -0.07690000
opls_145-216    C    0.58837004    0.64554008    0.69856000    -0.09670000
opls_145-217    C    0.62021002    0.67373995    0.69856000    0.23050000
opls_145-218    C    0.62383011    0.70563002    0.69856000    -0.09670000
opls_145-219    C    0.59560010    0.70931006    0.69856000    -0.07690000
opls_142-220    C    0.21960004    0.17646004    0.69856000    0.03980000
opls_142-221    C    0.68028997    0.69826003    0.69856000    0.03970000
opls_700-222    C    0.21597995    0.14456997    0.69856000    0.06500000
opls_700-223    C    0.70841999    0.69470999    0.69856000    0.06920000
opls_145-224    C    0.18413997    0.11637010    0.69856000    -0.05310000
opls_700-225    C    0.18052010    0.08448003    0.69856000    0.06480000
opls_145-226    C    0.20875010    0.08079999    0.69856000    -0.05300000
opls_700-227    C    0.24060005    0.10900010    0.69856000    0.08490000
opls_145-228    C    0.24422002    0.14088993    0.69856000    -0.05310000
opls_700-229    C    0.26873000    0.10545999    0.69856000    0.08500000
opls_145-230    C    0.26511997    0.07356992    0.69856000    -0.07690000
opls_145-231    C    0.29335004    0.06987996    0.69856000    -0.07420000
opls_916-232    C    0.32518993    0.09808007    0.69856000    0.22310000
opls_145-233    C    0.32880990    0.12996990    0.69856000    -0.07420000
opls_145-234    C    0.30057995    0.13366010    0.69856000    -0.07690000
opls_916-235    C    0.34970985    0.06264989    0.69856000    0.22460000
opls_916-236    C    0.38517004    0.12274007    0.69856000    0.22170000
opls_145-237    C    0.31786002    0.03445002    0.69856000    -0.07420000
opls_145-238    C    0.31425005    0.00257012    0.69856000    -0.09670000
opls_145-239    C    0.34248012    0.99888016    0.69856000    0.23840000
opls_145-240    C    0.37432010    0.02708003    0.69856000    -0.09670000
opls_145-241    C    0.37793998    0.05897010    0.69856000    -0.07420000
opls_145-242    C    0.41340004    0.11906004    0.69856000    -0.07420000
opls_145-243    C    0.44524002    0.14725991    0.69856000    -0.07690000
opls_700-244    C    0.44885990    0.17914998    0.69856000    0.06940000
opls_145-245    C    0.42072995    0.18269009    0.69856000    -0.08440000
opls_145-246    C    0.38888000    0.15448998    0.69856000    -0.08650000
opls_142-247    C    0.48069999    0.20735009    0.69856000    0.04020000
opls_145-248    C    0.51626007    0.26728995    0.69856000    0.22770000
opls_145-249    C    0.54439999    0.26375008    0.69856000    -0.09720000
opls_145-250    C    0.57623996    0.29194995    0.69856000    -0.08440000
opls_700-251    C    0.57995005    0.32370010    0.69856000    0.08490000
opls_145-252    C    0.55172004    0.32738013    0.69856000    -0.07690000
opls_145-253    C    0.51987995    0.29918002    0.69856000    -0.09660000
opls_700-254    C    0.61179988    0.35189997    0.69856000    0.08490000
opls_145-255    C    0.63992989    0.34834993    0.69856000    -0.08440000
opls_145-256    C    0.67177998    0.37655997    0.69856000    -0.09720000
opls_145-257    C    0.67549002    0.40829995    0.69856000    0.22910000
opls_145-258    C    0.64725994    0.41198991    0.69856000    -0.09670000
opls_145-259    C    0.61540997    0.38378011    0.69856000    -0.07690000
opls_142-260    C    0.71094999    0.46839013    0.69856000    0.03940000
opls_700-261    C    0.74278997    0.49659000    0.69856000    0.06470000
opls_145-262    C    0.77102004    0.49290004    0.69856000    -0.11970000
opls_145-263    C    0.80287013    0.52111008    0.69856000    0.23530000
opls_145-264    C    0.80647990    0.55298998    0.69856000    -0.12030000
opls_700-265    C    0.77825003    0.55667994    0.69856000    0.08480000
opls_145-266    C    0.74641006    0.52848007    0.69856000    -0.05310000
opls_700-267    C    0.78196992    0.58841993    0.69856000    0.08480000
opls_145-268    C    0.70479995    0.66283009    0.69856000    -0.07690000
opls_145-269    C    0.73303002    0.65914013    0.69856000    -0.07420000
opls_916-270    C    0.76488006    0.68734000    0.69856000    0.22170000
opls_145-271    C    0.76849009    0.71923007    0.69856000    -0.07420000
opls_145-272    C    0.74026008    0.72291011    0.69856000    -0.07690000
opls_145-273    C    0.81381002    0.61662004    0.69856000    -0.07690000
opls_145-274    C    0.81743011    0.64851011    0.69856000    -0.07410000
opls_916-275    C    0.78920003    0.65220007    0.69856000    0.23010000
opls_145-276    C    0.75734994    0.62399003    0.69856000    -0.07420000
opls_145-277    C    0.75373997    0.59211013    0.69856000    -0.07690000
opls_916-278    C    0.82494996    0.71186008    0.69856000    0.22310000
opls_145-279    C    0.85296007    0.70798009    0.69856000    -0.07420000
opls_145-280    C    0.88480990    0.73617996    0.69856000    -0.09670000
opls_145-281    C    0.88864010    0.76826006    0.69856000    0.23730000
opls_145-282    C    0.86019013    0.77175007    0.69856000    -0.09680000
opls_145-283    C    0.82835003    0.74354996    0.69856000    -0.07420000
opls_142-284    C    0.14868000    0.05627991    0.69856000    0.03940000
opls_145-285    C    0.11321993    0.99618997    0.69856000    0.22900000
opls_145-286    C    0.08498986    0.99987993    0.69856000    -0.09670000
opls_145-287    C    0.05314003    0.97168006    0.69856000    -0.07690000
opls_700-288    C    0.04953001    0.93978999    0.69856000    0.08500000
opls_145-289    C    0.07766007    0.93625012    0.69856000    -0.08440000
opls_145-290    C    0.10950990    0.96444999    0.69856000    -0.09720000
opls_700-291    C    0.35637990    0.86946001    0.69856000    0.08480000
opls_700-292    C    0.94641996    0.53463993    0.69856000    0.08490000
opls_700-293    C    0.01767997    0.91159012    0.69856000    0.08500000
opls_145-294    C    0.98945017    0.91527015    0.69856000    -0.07690000
opls_145-295    C    0.95761007    0.88707004    0.69856000    -0.07690000
opls_700-296    C    0.95399004    0.85519014    0.69856000    0.06960000
opls_145-297    C    0.98213011    0.85164010    0.69856000    -0.08440000
opls_145-298    C    0.01397009    0.87983997    0.69856000    -0.08440000
opls_145-299    C    0.95004012    0.56652007    0.69856000    -0.07690000
opls_145-300    C    0.92181005    0.57021003    0.69856000    -0.07690000
opls_700-301    C    0.88995989    0.54200992    0.69856000    0.06940000
opls_145-302    C    0.88634998    0.51012009    0.69856000    -0.07690000
opls_145-303    C    0.91457999    0.50644006    0.69856000    -0.07690000
opls_145-304    C    0.38822000    0.89766012    0.69856000    -0.08440000
opls_145-305    C    0.39194009    0.92940011    0.69856000    -0.07680000
opls_700-306    C    0.36371002    0.93309006    0.69856000    0.06490000
opls_145-307    C    0.33186007    0.90488995    0.69856000    -0.07690000
opls_145-308    C    0.32825017    0.87300012    0.69856000    -0.07680000
opls_142-309    C    0.86182994    0.54555003    0.69856000    0.04020000
opls_142-310    C    0.36732005    0.96498013    0.69856000    0.03960000
opls_142-311    C    0.92215001    0.82698010    0.69856000    0.04030000
opls_239-312    N    0.14411989    0.98726997    0.00000000    -0.10600000
opls_750-313    N    0.28244003    0.19559999    0.00000000    -0.19690000
opls_750-314    N    0.39165002    0.14911009    0.00000000    -0.19460000
opls_750-315    N    0.99987014    0.97358011    0.00000000    -0.19660000
opls_750-316    N    0.15758992    0.85646999    0.00000000    -0.19820000
opls_750-317    N    0.13208987    0.63353991    0.00000000    -0.19550000
opls_750-318    N    0.58905992    0.12359993    0.00000000    -0.19660000
opls_239-319    N    0.29395010    0.54809013    0.00000000    -0.10600000
opls_750-320    N    0.42503992    0.69264001    0.00000000    -0.19530000
opls_750-321    N    0.64796001    0.89004999    0.00000000    -0.19670000
opls_239-322    N    0.73362991    0.13733989    0.00000000    -0.10910000
opls_750-323    N    0.08568992    0.47794001    0.00000000    -0.19660000
opls_750-324    N    0.27971003    0.42219993    0.00000000    -0.17150000
opls_750-325    N    0.77060995    0.97088993    0.00000000    -0.18530000
opls_750-326    N    0.85906008    0.24878012    0.00000000    -0.18390000
opls_239-327    N    0.20348993    0.53372997    0.69856000    -0.10590000
opls_750-328    N    0.34182000    0.74205006    0.69856000    -0.19830000
opls_750-329    N    0.45103012    0.69557009    0.69856000    -0.19570000
opls_750-330    N    0.05925003    0.52004011    0.69856000    -0.19670000
opls_750-331    N    0.21697009    0.40292006    0.69856000    -0.19700000
opls_750-332    N    0.19146997    0.17999991    0.69856000    -0.19540000
opls_750-333    N    0.64844009    0.67005000    0.69856000    -0.19730000
opls_239-334    N    0.35331988    0.09453996    0.69856000    -0.10600000
opls_750-335    N    0.48442009    0.23909008    0.69856000    -0.19450000
opls_750-336    N    0.70733011    0.43650006    0.69856000    -0.19670000
opls_239-337    N    0.79301013    0.68380013    0.69856000    -0.10910000
opls_750-338    N    0.14506003    0.02439008    0.69856000    -0.19670000
opls_750-339    N    0.33908992    0.96865993    0.69856000    -0.17180000
opls_750-340    N    0.82999005    0.51734992    0.69856000    -0.18530000
opls_750-341    N    0.91843012    0.79524012    0.69856000    -0.18380000
opls_146-342    H    0.21441002    0.10063010    0.00000000    0.05170000
opls_144-343    H    0.15734998    0.05009997    0.00000000    -0.09080000
opls_144-344    H    0.20127991    0.98656989    0.00000000    -0.09080000
opls_146-345    H    0.25836000    0.03710995    0.00000000    0.05170000
opls_144-346    H    0.14480007    0.04505003    0.00000000    -0.09080000
opls_146-347    H    0.09428007    0.05161003    0.00000000    0.05170000
opls_146-348    H    0.03070997    0.94395998    0.00000000    0.05170000
opls_144-349    H    0.08123004    0.93739005    0.00000000    -0.09080000
opls_144-350    H    0.08632993    0.93006993    0.00000000    -0.09080000
opls_146-351    H    0.07983993    0.87295994    0.00000000    0.05170000
opls_146-352    H    0.18734002    0.91706998    0.00000000    0.05170000
opls_144-353    H    0.19397003    0.97398995    0.00000000    -0.09080000
opls_146-354    H    0.29682000    0.07116998    0.00000000    0.05170000
opls_146-355    H    0.36039010    0.17882003    0.00000000    0.05170000
opls_146-356    H    0.25287994    0.13470998    0.00000000    0.05110000
opls_144-357    H    0.33587006    0.21424997    0.00000000    0.03050000
opls_144-358    H    0.35689010    0.09569006    0.00000000    0.03060000
opls_146-359    H    0.34022999    0.25280003    0.00000000    0.05170000
opls_146-360    H    0.34684993    0.30971999    0.00000000    0.05170000
opls_146-361    H    0.23921005    0.26579997    0.00000000    0.05110000
opls_146-362    H    0.23272011    0.20868006    0.00000000    0.05180000
opls_146-363    H    0.88635995    0.93041004    0.00000000    0.05170000
opls_146-364    H    0.93688001    0.92384011    0.00000000    0.05120000
opls_146-365    H    0.00045004    0.03150009    0.00000000    0.05170000
opls_146-366    H    0.94993005    0.03806009    0.00000000    0.05170000
opls_144-367    H    0.03460002    0.02698998    0.00000000    0.03050000
opls_144-368    H    0.10413996    0.83784010    0.00000000    0.03050000
opls_146-369    H    0.39096998    0.09133996    0.00000000    0.05170000
opls_146-370    H    0.44147998    0.08477003    0.00000000    0.05110000
opls_146-371    H    0.50505001    0.19243001    0.00000000    0.05170000
opls_146-372    H    0.45454008    0.19899001    0.00000000    0.05170000
opls_146-373    H    0.09981010    0.79926002    0.00000000    0.05170000
opls_146-374    H    0.09318003    0.74234999    0.00000000    0.05170000
opls_146-375    H    0.20081991    0.78627000    0.00000000    0.05180000
opls_146-376    H    0.20730991    0.84338000    0.00000000    0.05170000
opls_146-377    H    0.08885994    0.70375007    0.00000000    0.05110000
opls_146-378    H    0.08224000    0.64683010    0.00000000    0.05170000
opls_146-379    H    0.18988009    0.69075012    0.00000000    0.05170000
opls_146-380    H    0.19636004    0.74786011    0.00000000    0.05170000
opls_146-381    H    0.47555986    0.08041993    0.00000000    0.05170000
opls_146-382    H    0.52607001    0.07385993    0.00000000    0.05180000
opls_146-383    H    0.58964996    0.18150998    0.00000000    0.05170000
opls_146-384    H    0.53912989    0.18807991    0.00000000    0.05170000
opls_144-385    H    0.18540010    0.65237000    0.00000000    0.03050000
opls_144-386    H    0.62378992    0.17701003    0.00000000    0.03050000
opls_146-387    H    0.10244004    0.57280000    0.00000000    0.05170000
opls_146-388    H    0.14646004    0.50912008    0.00000000    0.05170000
opls_146-389    H    0.21003999    0.61677013    0.00000000    0.05170000
opls_146-390    H    0.18053992    0.50476998    0.00000000    0.05170000
opls_144-391    H    0.23105991    0.49820997    0.00000000    -0.09080000
opls_144-392    H    0.29463001    0.60586002    0.00000000    -0.09080000
opls_146-393    H    0.24411001    0.61242003    0.00000000    0.05170000
opls_144-394    H    0.23615988    0.49087992    0.00000000    -0.09080000
opls_146-395    H    0.22966987    0.43376993    0.00000000    0.05170000
opls_146-396    H    0.33727003    0.47774006    0.00000000    0.05170000
opls_144-397    H    0.34375997    0.53485998    0.00000000    -0.09080000
opls_144-398    H    0.35110998    0.54738012    0.00000000    -0.09080000
opls_146-399    H    0.40818995    0.59791994    0.00000000    0.05170000
opls_146-400    H    0.36416996    0.66142000    0.00000000    0.05110000
opls_144-401    H    0.30717998    0.61092013    0.00000000    -0.09080000
opls_144-402    H    0.44365014    0.65801012    0.00000000    0.03050000
opls_146-403    H    0.48220012    0.69211010    0.00000000    0.05170000
opls_146-404    H    0.53918989    0.74260998    0.00000000    0.05110000
opls_146-405    H    0.49525990    0.80614998    0.00000000    0.05170000
opls_146-406    H    0.43816995    0.75560992    0.00000000    0.05110000
opls_146-407    H    0.57774015    0.77672012    0.00000000    0.05170000
opls_146-408    H    0.63472006    0.82722000    0.00000000    0.05170000
opls_146-409    H    0.59079013    0.89075007    0.00000000    0.05180000
opls_146-410    H    0.53371004    0.84021002    0.00000000    0.05170000
opls_144-411    H    0.62923002    0.92479002    0.00000000    0.03050000
opls_146-412    H    0.70873012    0.92123005    0.00000000    0.05170000
opls_146-413    H    0.77231007    0.02888010    0.00000000    0.05170000
opls_146-414    H    0.66470991    0.98490998    0.00000000    0.05170000
opls_146-415    H    0.62023005    0.09402991    0.00000000    0.05170000
opls_144-416    H    0.67074005    0.08745998    0.00000000    -0.09190000
opls_144-417    H    0.73430994    0.19511002    0.00000000    -0.09080000
opls_146-418    H    0.68379994    0.20167996    0.00000000    0.05170000
opls_146-419    H    0.77675995    0.06728007    0.00000000    0.05170000
opls_144-420    H    0.78324989    0.12439999    0.00000000    -0.09190000
opls_144-421    H    0.67565001    0.08041993    0.00000000    -0.09190000
opls_146-422    H    0.66916000    0.02330994    0.00000000    0.05170000
opls_144-423    H    0.79050996    0.13622998    0.00000000    -0.09190000
opls_146-424    H    0.84776004    0.18684000    0.00000000    0.05170000
opls_146-425    H    0.80355999    0.25044996    0.00000000    0.05110000
opls_144-426    H    0.74663995    0.19998010    0.00000000    -0.09080000
opls_144-427    H    0.06697998    0.51271006    0.00000000    0.03050000
opls_146-428    H    0.02852005    0.47864010    0.00000000    0.05170000
opls_146-429    H    0.97143989    0.42810996    0.00000000    0.05110000
opls_146-430    H    0.01546994    0.36460990    0.00000000    0.05170000
opls_146-431    H    0.07244998    0.41511002    0.00000000    0.05170000
opls_146-432    H    0.93299002    0.39404000    0.00000000    0.05170000
opls_146-433    H    0.87590008    0.34349994    0.00000000    0.05170000
opls_146-434    H    0.91993004    0.28000013    0.00000000    0.05110000
opls_146-435    H    0.97692002    0.33050000    0.00000000    0.05110000
opls_146-436    H    0.91585990    0.04240995    0.00000000    0.05170000
opls_146-437    H    0.86533984    0.04897988    0.00000000    0.05110000
opls_146-438    H    0.80177014    0.94132015    0.00000000    0.05170000
opls_146-439    H    0.85229013    0.93476014    0.00000000    0.05170000
opls_146-440    H    0.35117002    0.34831991    0.00000000    0.05180000
opls_146-441    H    0.35779988    0.40522995    0.00000000    0.05170000
opls_146-442    H    0.25016005    0.36132010    0.00000000    0.05170000
opls_146-443    H    0.24366999    0.30419994    0.00000000    0.05170000
opls_144-444    H    0.80526995    0.02427994    0.00000000    0.03050000
opls_144-445    H    0.33314011    0.44086008    0.00000000    0.03050000
opls_144-446    H    0.84044001    0.28341000    0.00000000    0.03050000
opls_146-447    H    0.27378006    0.64709009    0.69856000    0.05170000
opls_144-448    H    0.21673009    0.59655996    0.69856000    -0.09080000
opls_144-449    H    0.26066008    0.53301996    0.69856000    -0.09080000
opls_146-450    H    0.31773997    0.58356002    0.69856000    0.05170000
opls_144-451    H    0.20418003    0.59150010    0.69856000    -0.09080000
opls_146-452    H    0.15365996    0.59807003    0.69856000    0.05110000
opls_146-453    H    0.09008993    0.49041005    0.69856000    0.05170000
opls_144-454    H    0.14060993    0.48385005    0.69856000    -0.09080000
opls_144-455    H    0.14571004    0.47652992    0.69856000    -0.09080000
opls_146-456    H    0.13922010    0.41941001    0.69856000    0.05170000
opls_146-457    H    0.24671992    0.46352998    0.69856000    0.05180000
opls_144-458    H    0.25334999    0.52044002    0.69856000    -0.09080000
opls_146-459    H    0.35619004    0.61762998    0.69856000    0.05170000
opls_146-460    H    0.41976999    0.72528003    0.69856000    0.05170000
opls_146-461    H    0.31226011    0.68116006    0.69856000    0.05170000
opls_144-462    H    0.39524995    0.76070997    0.69856000    0.03050000
opls_144-463    H    0.41627007    0.64214013    0.69856000    0.03050000
opls_146-464    H    0.39961010    0.79926002    0.69856000    0.05170000
opls_146-465    H    0.40623010    0.85617006    0.69856000    0.05170000
opls_146-466    H    0.29859001    0.81225004    0.69856000    0.05170000
opls_146-467    H    0.29210000    0.75514005    0.69856000    0.05170000
opls_146-468    H    0.94574012    0.47686011    0.69856000    0.05170000
opls_146-469    H    0.99626012    0.47030011    0.69856000    0.05170000
opls_146-470    H    0.05982988    0.57794992    0.69856000    0.05170000
opls_146-471    H    0.00930994    0.58452009    0.69856000    0.05170000
opls_144-472    H    0.09397991    0.57344997    0.69856000    0.03050000
opls_144-473    H    0.16352007    0.38430009    0.69856000    0.03050000
opls_146-474    H    0.45034009    0.63779003    0.69856000    0.05170000
opls_146-475    H    0.50086009    0.63123003    0.69856000    0.05170000
opls_146-476    H    0.56442998    0.73888008    0.69856000    0.05170000
opls_146-477    H    0.51391997    0.74545001    0.69856000    0.05110000
opls_146-478    H    0.15917993    0.34572002    0.69856000    0.05110000
opls_146-479    H    0.15255999    0.28880006    0.69856000    0.05170000
opls_146-480    H    0.26020008    0.33272008    0.69856000    0.05110000
opls_146-481    H    0.26669002    0.38983999    0.69856000    0.05170000
opls_146-482    H    0.14823999    0.25019989    0.69856000    0.05170000
opls_146-483    H    0.14161004    0.19329010    0.69856000    0.05170000
opls_146-484    H    0.24925008    0.23719995    0.69856000    0.05170000
opls_146-485    H    0.25574014    0.29432011    0.69856000    0.05170000
opls_146-486    H    0.53493996    0.62687993    0.69856000    0.05170000
opls_146-487    H    0.58544990    0.62031992    0.69856000    0.05170000
opls_146-488    H    0.64902000    0.72796997    0.69856000    0.05170000
opls_146-489    H    0.59851006    0.73452998    0.69856000    0.05180000
opls_144-490    H    0.24478006    0.19882008    0.69856000    0.03050000
opls_144-491    H    0.68317002    0.72347003    0.69856000    0.03050000
opls_146-492    H    0.16180994    0.11925007    0.69856000    0.05170000
opls_146-493    H    0.20583988    0.05556991    0.69856000    0.05110000
opls_146-494    H    0.26941003    0.16323012    0.69856000    0.05170000
opls_146-495    H    0.23992002    0.05122997    0.69856000    0.05170000
opls_144-496    H    0.29043002    0.04466004    0.69856000    -0.09080000
opls_144-497    H    0.35400997    0.15231009    0.69856000    -0.09080000
opls_146-498    H    0.30348991    0.15888002    0.69856000    0.05170000
opls_144-499    H    0.29553998    0.03733992    0.69856000    -0.09080000
opls_146-500    H    0.28905004    0.98022000    0.69856000    0.05170000
opls_146-501    H    0.39665013    0.02420006    0.69856000    0.05170000
opls_144-502    H    0.40313993    0.08131005    0.69856000    -0.09080000
opls_144-503    H    0.41049008    0.09384012    0.69856000    -0.09070000
opls_146-504    H    0.46756991    0.14437001    0.69856000    0.05120000
opls_146-505    H    0.42354007    0.20787007    0.69856000    0.05170000
opls_144-506    H    0.36656003    0.15736996    0.69856000    -0.09080000
opls_144-507    H    0.50302998    0.20445995    0.69856000    0.03050000
opls_146-508    H    0.54158002    0.23857010    0.69856000    0.05170000
opls_146-509    H    0.59857000    0.28906997    0.69856000    0.05170000
opls_146-510    H    0.55464007    0.35260005    0.69856000    0.05170000
opls_146-511    H    0.49754991    0.30205999    0.69856000    0.05170000
opls_146-512    H    0.63710992    0.32316995    0.69856000    0.05170000
opls_146-513    H    0.69410002    0.37367007    0.69856000    0.05170000
opls_146-514    H    0.65017002    0.43721007    0.69856000    0.05170000
opls_146-515    H    0.59308993    0.38667001    0.69856000    0.05170000
opls_144-516    H    0.68860991    0.47125001    0.69856000    0.03050000
opls_146-517    H    0.76811008    0.46768012    0.69856000    0.05170000
opls_146-518    H    0.83168011    0.57534010    0.69856000    0.05170000
opls_146-519    H    0.72408002    0.53136005    0.69856000    0.05170000
opls_146-520    H    0.67959995    0.64047998    0.69856000    0.05170000
opls_144-521    H    0.73011994    0.63391997    0.69856000    -0.09180000
opls_144-522    H    0.79369004    0.74157002    0.69856000    -0.09080000
opls_146-523    H    0.74318004    0.74813995    0.69856000    0.05110000
opls_146-524    H    0.83614005    0.61374007    0.69856000    0.05170000
opls_144-525    H    0.84263006    0.67085006    0.69856000    -0.09190000
opls_144-526    H    0.73502990    0.62687993    0.69856000    -0.09190000
opls_146-527    H    0.72853990    0.56976994    0.69856000    0.05170000
opls_144-528    H    0.84988000    0.68268997    0.69856000    -0.09190000
opls_146-529    H    0.90712994    0.73329007    0.69856000    0.05170000
opls_146-530    H    0.86293995    0.79690003    0.69856000    0.05170000
opls_144-531    H    0.80602000    0.74642993    0.69856000    -0.09070000
opls_144-532    H    0.12635002    0.05917005    0.69856000    0.03050000
opls_146-533    H    0.08789994    0.02510009    0.69856000    0.05170000
opls_146-534    H    0.03082006    0.97456003    0.69856000    0.05170000
opls_146-535    H    0.07484005    0.91105997    0.69856000    0.05110000
opls_146-536    H    0.13182994    0.96156009    0.69856000    0.05170000
opls_146-537    H    0.99236991    0.94050000    0.69856000    0.05110000
opls_146-538    H    0.93527997    0.88995994    0.69856000    0.05110000
opls_146-539    H    0.97931014    0.82646012    0.69856000    0.05170000
opls_146-540    H    0.03629991    0.87696000    0.69856000    0.05180000
opls_146-541    H    0.97524000    0.58886995    0.69856000    0.05170000
opls_146-542    H    0.92472001    0.59542995    0.69856000    0.05170000
opls_146-543    H    0.86114991    0.48777990    0.69856000    0.05170000
opls_146-544    H    0.91166998    0.48120997    0.69856000    0.05110000
opls_146-545    H    0.41054998    0.89476998    0.69856000    0.05110000
opls_146-546    H    0.41716992    0.95168994    0.69856000    0.05170000
opls_146-547    H    0.30953004    0.90776992    0.69856000    0.05170000
opls_146-548    H    0.30304988    0.85065993    0.69856000    0.05170000
opls_144-549    H    0.86464991    0.57073001    0.69856000    0.03050000
opls_144-550    H    0.39252000    0.98732008    0.69856000    0.03050000
opls_144-551    H    0.89981990    0.82987000    0.69856000    0.03050000
