#======================================================================
# Crystal Data Generated By AuToFF
#----------------------------------------------------------------------

data_AuToFF_phase_1

_cell_length_a                         9.2400
_cell_length_b                         35.1800
_cell_length_c                         35.1900
_cell_angle_alpha                      107.15
_cell_angle_beta                       91.17
_cell_angle_gamma                      91.18
_symmetry_space_group_name_H-M_alt     'P 1'
_symmetry_space_group_IT_number        1

loop_
_space_group_symop_operation_xyz
   'x, y, z'

loop_
   _atom_site_label
   _atom_site_type_symbol
   _atom_site_fract_x
   _atom_site_fract_y
   _atom_site_fract_z
   _atom_site_charge
opls_700-0    C    0.00499962    0.59693997    0.49657001    0.07850000
opls_145-1    C    0.39999042    0.58619002    0.46572007    -0.09900000
opls_145-2    C    0.32078040    0.61480997    0.45476012    -0.14230000
opls_145-3    C    0.34218029    0.65533000    0.47537009    0.21830000
opls_145-4    C    0.44557997    0.66646994    0.50651992    -0.14220000
opls_145-5    C    0.02801985    0.63776012    0.51655997    -0.08140000
opls_142-6    C    0.18165006    0.68221996    0.43461992    0.01580000
opls_700-7    C    0.08675025    0.71419017    0.43084007    0.06920000
opls_145-8    C    0.04670014    0.74474013    0.46440002    -0.07930000
opls_145-9    C    0.45869054    0.77510992    0.46013998    -0.07920000
opls_700-10    C    0.41281996    0.77625000    0.42215993    0.07500000
opls_145-11    C    0.44922968    0.74494011    0.38872999    -0.07930000
opls_145-12    C    0.03450004    0.71406009    0.39310010    -0.07910000
opls_700-13    C    0.33993057    0.81181996    0.41732005    0.07160000
opls_145-14    C    0.38282971    0.82832000    0.38739000    -0.07910000
opls_145-15    C    0.33083980    0.86489006    0.38614998    -0.14230000
opls_916-16    C    0.23125051    0.88540013    0.41402007    0.20290000
opls_145-17    C    0.18190052    0.86766998    0.44251017    -0.14200000
opls_145-18    C    0.23801018    0.83177008    0.44467009    -0.07930000
opls_916-19    C    0.19823968    0.94057000    0.38260992    0.19070000
opls_916-20    C    0.21004055    0.95531010    0.45639999    0.09220000
opls_145-21    C    0.25889001    0.97830015    0.38526013    -0.11680000
opls_145-22    C    0.28875978    0.98910003    0.35157017    -0.11090000
opls_700-23    C    0.25710993    0.96281006    0.31375999    0.08180000
opls_145-24    C    0.18072019    0.92696012    0.31070011    -0.08140000
opls_145-25    C    0.15107062    0.91599001    0.34493005    -0.14250000
opls_727-26    C    0.12368052    0.98901013    0.46606994    0.28350000
opls_145-27    C    0.14820949    0.01944016    0.50138015    -0.21210000
opls_916-28    C    0.25883958    0.01683002    0.52829999    0.09580000
opls_727-29    C    0.34498980    0.98308000    0.51871007    0.28200000
opls_145-30    C    0.32054046    0.95265995    0.48337012    -0.21140000
opls_916-31    C    0.24002008    0.08705008    0.57003015    0.20290000
opls_916-32    C    0.27222933    0.03237995    0.60217991    0.19100000
opls_145-33    C    0.14063013    0.10800991    0.59770001    -0.14220000
opls_145-34    C    0.09008012    0.14461022    0.59606014    -0.07910000
opls_700-35    C    0.13435020    0.16067019    0.56593017    0.07150000
opls_145-36    C    0.23624952    0.14030008    0.53883004    -0.07930000
opls_145-37    C    0.29067960    0.10432994    0.54134013    -0.14200000
opls_145-38    C    0.31994950    0.05738998    0.63961017    -0.14250000
opls_145-39    C    0.29186979    0.04682999    0.67413019    -0.08160000
opls_700-40    C    0.21750948    0.01083995    0.67159005    0.08300000
opls_145-41    C    0.18498009    0.98415990    0.63408006    -0.12140000
opls_145-42    C    0.21214984    0.99469999    0.60006997    -0.11720000
opls_700-43    C    0.32770045    0.97026018    0.27923015    0.07100000
opls_145-44    C    0.38769056    0.93857004    0.25013998    -0.09890000
opls_145-45    C    0.48542009    0.94611015    0.22350009    -0.09720000
opls_700-46    C    0.02653064    0.98530996    0.22598013    0.07220000
opls_145-47    C    0.46157027    0.01701001    0.25355003    -0.11590000
opls_145-48    C    0.36000038    0.00952000    0.27920010    -0.09890000
opls_142-49    C    0.13566069    0.99230002    0.19920012    0.09570000
opls_145-50    C    0.27942975    0.03596000    0.17360002    0.22800000
opls_145-51    C    0.26603945    0.01295990    0.13388995    -0.15280000
opls_145-52    C    0.34884970    0.02196989    0.10547007    -0.11360000
opls_700-53    C    0.45314951    0.05252995    0.11523998    0.07650000
opls_145-54    C    0.46637957    0.07631004    0.15529010    -0.08390000
opls_145-55    C    0.37759046    0.06847996    0.18416994    -0.14220000
opls_700-56    C    0.04125035    0.06047006    0.08316013    0.03330000
opls_700-57    C    0.06275969    0.19620013    0.56059018    0.07500000
opls_700-58    C    0.14856946    0.00372000    0.70640014    0.07980000
opls_145-59    C    0.02739006    0.22798007    0.59370000    -0.07930000
opls_145-60    C    0.44334030    0.25889988    0.58886993    -0.07910000
opls_700-61    C    0.39124012    0.25832986    0.55096991    0.06920000
opls_145-62    C    0.43031953    0.22728014    0.51771996    -0.07910000
opls_145-63    C    0.01706008    0.19686004    0.52243995    -0.07930000
opls_145-64    C    0.12370983    0.96457011    0.70782015    -0.09890000
opls_145-65    C    0.02402999    0.95678005    0.73382010    -0.11630000
opls_700-66    C    0.45131028    0.98804003    0.75964005    0.06910000
opls_145-67    C    0.48436982    0.02744013    0.76058018    -0.09730000
opls_145-68    C    0.08202975    0.03521006    0.73408012    -0.09730000
opls_142-69    C    0.29732957    0.29029004    0.54670006    0.01580000
opls_145-70    C    0.13740995    0.31674002    0.50545008    0.21830000
opls_142-71    C    0.34269031    0.97914016    0.78565011    0.01590000
opls_145-72    C    0.19085949    0.00313010    0.84245001    0.22770000
opls_145-73    C    0.15978020    0.35736013    0.52555011    -0.14230000
opls_145-74    C    0.08120010    0.38589011    0.51425011    -0.09900000
opls_700-75    C    0.47565050    0.37506000    0.48355993    0.07940000
opls_145-76    C    0.03371041    0.30538986    0.47439991    -0.14250000
opls_145-77    C    0.18356012    0.03394994    0.87764002    -0.14890000
opls_145-78    C    0.09675011    0.02979998    0.90801008    -0.09760000
opls_700-79    C    0.00521016    0.99630016    0.90282003    0.07850000
opls_145-80    C    0.00732037    0.96624017    0.86599015    -0.07930000
opls_145-81    C    0.10351042    0.96877000    0.83688004    -0.11790000
opls_145-82    C    0.06779949    0.10030994    0.08504010    -0.08460000
opls_700-83    C    0.14970000    0.11092005    0.05677997    0.03910000
opls_700-84    C    0.21073046    0.08100003    0.02570005    0.03340000
opls_700-85    C    0.18686051    0.04040012    0.02297993    0.03120000
opls_700-86    C    0.09778978    0.02980003    0.05091993    -0.00030000
opls_145-87    C    0.08041993    0.98885991    0.04756997    -0.09900000
opls_145-88    C    0.29515033    0.09074996    0.99722007    -0.08090000
opls_700-89    C    0.08028991    0.56610000    0.51087010    0.04240000
opls_145-90    C    0.09287966    0.57316997    0.55220011    -0.08640000
opls_700-91    C    0.16238970    0.54705009    0.56909002    0.03890000
opls_700-92    C    0.22100994    0.51196007    0.54428011    0.03540000
opls_700-93    C    0.20949994    0.50355015    0.50239019    0.00770000
opls_700-94    C    0.13766987    0.53040996    0.48544019    -0.00270000
opls_145-95    C    0.29102962    0.48509989    0.56043993    -0.11630000
opls_145-96    C    0.13214037    0.52150010    0.44372014    -0.07930000
opls_145-97    C    0.26187034    0.59113003    0.63398010    -0.08560000
opls_700-98    C    0.30670997    0.41348010    0.36683002    0.07610000
opls_145-99    C    0.38521019    0.43471010    0.34565003    -0.07910000
opls_145-100    C    0.37622046    0.42325005    0.30409004    -0.14230000
opls_916-101    C    0.28811956    0.39052991    0.28325992    0.26010000
opls_145-102    C    0.20923982    0.36934990    0.30438011    -0.14230000
opls_145-103    C    0.21908045    0.38062003    0.34594010    -0.07930000
opls_916-104    C    0.26671965    0.81552010    0.95235000    0.26020000
opls_145-105    C    0.33164990    0.84179998    0.98672007    -0.14230000
opls_145-106    C    0.34502963    0.88239994    0.99054009    -0.07930000
opls_700-107    C    0.29399969    0.89717012    0.95994006    0.07140000
opls_145-108    C    0.22997958    0.87078012    0.92543015    -0.07930000
opls_145-109    C    0.21574048    0.83020996    0.92176008    -0.14230000
opls_700-110    C    0.31007019    0.94006993    0.96330995    0.03210000
opls_916-111    C    0.19263964    0.58102011    0.69675013    0.26020000
opls_916-112    C    0.21740008    0.23554995    0.07181997    0.26120000
opls_145-113    C    0.10494958    0.54828004    0.67574001    -0.14230000
opls_145-114    C    0.09620037    0.53692987    0.63416991    -0.07910000
opls_700-115    C    0.17455974    0.55824004    0.61306013    0.08010000
opls_145-116    C    0.27152043    0.60237001    0.67582004    -0.14240000
opls_145-117    C    0.13110044    0.21215001    0.03989988    -0.14230000
opls_145-118    C    0.10916028    0.17151007    0.03486989    -0.07910000
opls_700-119    C    0.17329047    0.15386003    0.06172993    0.07980000
opls_145-120    C    0.25797958    0.17741002    0.09397014    -0.07910000
opls_145-121    C    0.28067994    0.21799000    0.09882995    -0.14230000
opls_145-122    C    0.40088963    0.95073020    0.93706010    -0.08300000
opls_700-123    C    0.41617959    0.99015008    0.93578021    0.04200000
opls_700-124    C    0.34701001    0.02086999    0.96534997    0.00240000
opls_700-125    C    0.25755939    0.01037012    0.99330009    0.02980000
opls_700-126    C    0.23663958    0.96980995    0.99136003    0.03270000
opls_145-127    C    0.14450027    0.95981005    0.01797998    -0.14170000
opls_145-128    C    0.35677956    0.06141012    0.96702019    -0.09890000
opls_700-129    C    0.31884994    0.42475996    0.41080995    0.03920000
opls_145-130    C    0.38798989    0.39862998    0.42778018    -0.08640000
opls_700-131    C    0.40075993    0.40585013    0.46912001    0.07060000
opls_700-132    C    0.34369033    0.44162015    0.49448001    -0.00140000
opls_700-133    C    0.27198047    0.46843997    0.47746009    0.00770000
opls_700-134    C    0.26054053    0.45994986    0.43554994    0.03640000
opls_145-135    C    0.34938958    0.45065006    0.53623010    -0.09900000
opls_145-136    C    0.19075054    0.48679001    0.41933002    -0.09890000
opls_145-137    C    0.45142049    0.33422015    0.46394007    -0.08400000
opls_700-138    C    0.50499962    0.59693997    0.49657001    0.07850000
opls_145-139    C    0.89999042    0.58619002    0.46572007    -0.09900000
opls_145-140    C    0.82078040    0.61480997    0.45476012    -0.14230000
opls_145-141    C    0.84218029    0.65533000    0.47537009    0.21830000
opls_145-142    C    0.94557997    0.66646994    0.50651992    -0.14220000
opls_145-143    C    0.52801985    0.63776012    0.51655997    -0.08140000
opls_142-144    C    0.68165006    0.68221996    0.43461992    0.01580000
opls_700-145    C    0.58675025    0.71419017    0.43084007    0.06920000
opls_145-146    C    0.54670014    0.74474013    0.46440002    -0.07930000
opls_145-147    C    0.95869054    0.77510992    0.46013998    -0.07930000
opls_700-148    C    0.91281996    0.77625000    0.42215993    0.07500000
opls_145-149    C    0.94922968    0.74494011    0.38872999    -0.07930000
opls_145-150    C    0.53450004    0.71406009    0.39310010    -0.07910000
opls_700-151    C    0.83993057    0.81181996    0.41732005    0.07160000
opls_145-152    C    0.88282971    0.82832000    0.38739000    -0.07910000
opls_145-153    C    0.83083980    0.86489006    0.38614998    -0.14230000
opls_916-154    C    0.73125051    0.88540013    0.41402007    0.20290000
opls_145-155    C    0.68190052    0.86766998    0.44251017    -0.14200000
opls_145-156    C    0.73801018    0.83177008    0.44467009    -0.07930000
opls_916-157    C    0.69823968    0.94057000    0.38260992    0.19070000
opls_916-158    C    0.71004055    0.95531010    0.45639999    0.09220000
opls_145-159    C    0.75889001    0.97830015    0.38526013    -0.11680000
opls_145-160    C    0.78875978    0.98910003    0.35157017    -0.11090000
opls_700-161    C    0.75710993    0.96281006    0.31375999    0.08180000
opls_145-162    C    0.68072019    0.92696012    0.31070011    -0.08140000
opls_145-163    C    0.65107062    0.91599001    0.34493005    -0.14250000
opls_727-164    C    0.62368052    0.98901013    0.46606994    0.28350000
opls_145-165    C    0.64820949    0.01944016    0.50138015    -0.21210000
opls_916-166    C    0.75883958    0.01683002    0.52829999    0.09580000
opls_727-167    C    0.84498980    0.98308000    0.51871007    0.28190000
opls_145-168    C    0.82054046    0.95265995    0.48337012    -0.21140000
opls_916-169    C    0.74002008    0.08705008    0.57003015    0.20290000
opls_916-170    C    0.77222933    0.03237995    0.60217991    0.19100000
opls_145-171    C    0.64063013    0.10800991    0.59770001    -0.14220000
opls_145-172    C    0.59008012    0.14461022    0.59606014    -0.07910000
opls_700-173    C    0.63435020    0.16067019    0.56593017    0.07150000
opls_145-174    C    0.73624952    0.14030008    0.53883004    -0.07930000
opls_145-175    C    0.79067960    0.10432994    0.54134013    -0.14200000
opls_145-176    C    0.81994950    0.05738998    0.63961017    -0.14250000
opls_145-177    C    0.79186979    0.04682999    0.67413019    -0.08160000
opls_700-178    C    0.71750948    0.01083995    0.67159005    0.08300000
opls_145-179    C    0.68498009    0.98415990    0.63408006    -0.12140000
opls_145-180    C    0.71214984    0.99469999    0.60006997    -0.11720000
opls_700-181    C    0.82770045    0.97026018    0.27923015    0.07100000
opls_145-182    C    0.88769056    0.93857004    0.25013998    -0.09890000
opls_145-183    C    0.98542009    0.94611015    0.22350009    -0.09710000
opls_700-184    C    0.52653064    0.98530996    0.22598013    0.07210000
opls_145-185    C    0.96157027    0.01701001    0.25355003    -0.11590000
opls_145-186    C    0.86000038    0.00952000    0.27920010    -0.09890000
opls_142-187    C    0.63566069    0.99230002    0.19920012    0.09570000
opls_145-188    C    0.77942975    0.03596000    0.17360002    0.22810000
opls_145-189    C    0.76603945    0.01295990    0.13388995    -0.15280000
opls_145-190    C    0.84884970    0.02196989    0.10547007    -0.11360000
opls_700-191    C    0.95314951    0.05252995    0.11523998    0.07650000
opls_145-192    C    0.96637957    0.07631004    0.15529010    -0.08390000
opls_145-193    C    0.87759046    0.06847996    0.18416994    -0.14210000
opls_700-194    C    0.54125035    0.06047006    0.08316013    0.03330000
opls_700-195    C    0.56275969    0.19620013    0.56059018    0.07490000
opls_700-196    C    0.64856946    0.00372000    0.70640014    0.07980000
opls_145-197    C    0.52739006    0.22798007    0.59370000    -0.07930000
opls_145-198    C    0.94334030    0.25889988    0.58886993    -0.07910000
opls_700-199    C    0.89124012    0.25832986    0.55096991    0.06920000
opls_145-200    C    0.93031953    0.22728014    0.51771996    -0.07910000
opls_145-201    C    0.51706008    0.19686004    0.52243995    -0.07930000
opls_145-202    C    0.62370983    0.96457011    0.70782015    -0.09890000
opls_145-203    C    0.52402999    0.95678005    0.73382010    -0.11630000
opls_700-204    C    0.95131028    0.98804003    0.75964005    0.06920000
opls_145-205    C    0.98436982    0.02744013    0.76058018    -0.09730000
opls_145-206    C    0.58202975    0.03521006    0.73408012    -0.09720000
opls_142-207    C    0.79732957    0.29029004    0.54670006    0.01580000
opls_145-208    C    0.63740995    0.31674002    0.50545008    0.21830000
opls_142-209    C    0.84269031    0.97914016    0.78565011    0.01590000
opls_145-210    C    0.69085949    0.00313010    0.84245001    0.22770000
opls_145-211    C    0.65978020    0.35736013    0.52555011    -0.14230000
opls_145-212    C    0.58120010    0.38589011    0.51425011    -0.09900000
opls_700-213    C    0.97565050    0.37506000    0.48355993    0.07910000
opls_145-214    C    0.53371041    0.30538986    0.47439991    -0.14250000
opls_145-215    C    0.68356012    0.03394994    0.87764002    -0.14890000
opls_145-216    C    0.59675011    0.02979998    0.90801008    -0.09760000
opls_700-217    C    0.50521016    0.99630016    0.90282003    0.07850000
opls_145-218    C    0.50732037    0.96624017    0.86599015    -0.07930000
opls_145-219    C    0.60351042    0.96877000    0.83688004    -0.11790000
opls_145-220    C    0.56779949    0.10030994    0.08504010    -0.08460000
opls_700-221    C    0.64970000    0.11092005    0.05677997    0.03910000
opls_700-222    C    0.71073046    0.08100003    0.02570005    0.03340000
opls_700-223    C    0.68686051    0.04040012    0.02297993    0.03120000
opls_700-224    C    0.59778978    0.02980003    0.05091993    -0.00030000
opls_145-225    C    0.58041993    0.98885991    0.04756997    -0.09900000
opls_145-226    C    0.79515033    0.09074996    0.99722007    -0.08090000
opls_700-227    C    0.58028991    0.56610000    0.51087010    0.04240000
opls_145-228    C    0.59287966    0.57316997    0.55220011    -0.08640000
opls_700-229    C    0.66238970    0.54705009    0.56909002    0.03890000
opls_700-230    C    0.72100994    0.51196007    0.54428011    0.03540000
opls_700-231    C    0.70949994    0.50355015    0.50239019    0.00770000
opls_700-232    C    0.63766987    0.53040996    0.48544019    -0.00270000
opls_145-233    C    0.79102962    0.48509989    0.56043993    -0.11630000
opls_145-234    C    0.63214037    0.52150010    0.44372014    -0.07930000
opls_145-235    C    0.76187034    0.59113003    0.63398010    -0.08560000
opls_700-236    C    0.80670997    0.41348010    0.36683002    0.07610000
opls_145-237    C    0.88521019    0.43471010    0.34565003    -0.07910000
opls_145-238    C    0.87622046    0.42325005    0.30409004    -0.14230000
opls_916-239    C    0.78811956    0.39052991    0.28325992    0.26020000
opls_145-240    C    0.70923982    0.36934990    0.30438011    -0.14230000
opls_145-241    C    0.71908045    0.38062003    0.34594010    -0.07930000
opls_916-242    C    0.76671965    0.81552010    0.95235000    0.26030000
opls_145-243    C    0.83164990    0.84179998    0.98672007    -0.14230000
opls_145-244    C    0.84501989    0.88239994    0.99054009    -0.07930000
opls_700-245    C    0.79398995    0.89717012    0.95994006    0.07140000
opls_145-246    C    0.72996984    0.87078012    0.92543015    -0.07930000
opls_145-247    C    0.71574048    0.83020996    0.92176008    -0.14230000
opls_700-248    C    0.81007019    0.94006993    0.96330995    0.03210000
opls_916-249    C    0.69263964    0.58102011    0.69675013    0.26040000
opls_916-250    C    0.71740008    0.23554995    0.07181997    0.26120000
opls_145-251    C    0.60494958    0.54828004    0.67574001    -0.14230000
opls_145-252    C    0.59620037    0.53692987    0.63416991    -0.07910000
opls_700-253    C    0.67455974    0.55824004    0.61306013    0.08010000
opls_145-254    C    0.77152043    0.60237001    0.67582004    -0.14250000
opls_145-255    C    0.63110044    0.21215001    0.03989988    -0.14230000
opls_145-256    C    0.60916028    0.17151007    0.03486989    -0.07900000
opls_700-257    C    0.67329047    0.15386003    0.06172993    0.07980000
opls_145-258    C    0.75797958    0.17741002    0.09397014    -0.07910000
opls_145-259    C    0.78067994    0.21799000    0.09882995    -0.14230000
opls_145-260    C    0.90088963    0.95073020    0.93706010    -0.08300000
opls_700-261    C    0.91617959    0.99015008    0.93578021    0.04200000
opls_700-262    C    0.84701001    0.02086999    0.96534997    0.00240000
opls_700-263    C    0.75755939    0.01037012    0.99330009    0.02980000
opls_700-264    C    0.73663958    0.96980995    0.99136003    0.03270000
opls_145-265    C    0.64450027    0.95981005    0.01797998    -0.14170000
opls_145-266    C    0.85677956    0.06141012    0.96702019    -0.09890000
opls_700-267    C    0.81884994    0.42475996    0.41080995    0.03920000
opls_145-268    C    0.88798989    0.39862998    0.42778018    -0.08640000
opls_700-269    C    0.90075019    0.40585013    0.46912001    0.07060000
opls_700-270    C    0.84369033    0.44162015    0.49448001    -0.00140000
opls_700-271    C    0.77198047    0.46843997    0.47746009    0.00770000
opls_700-272    C    0.76054053    0.45994986    0.43554994    0.03640000
opls_145-273    C    0.84937984    0.45065006    0.53623010    -0.09900000
opls_145-274    C    0.69075054    0.48679001    0.41933002    -0.09890000
opls_145-275    C    0.95142049    0.33422015    0.46394007    -0.08400000
opls_750-276    N    0.25314001    0.68538008    0.46766995    -0.29020000
opls_239-277    N    0.19759067    0.92635004    0.41740989    -0.13000000
opls_239-278    N    0.27228986    0.04610017    0.56708005    -0.13010000
opls_750-279    N    0.18622030    0.02789995    0.20240013    -0.30060000
opls_750-280    N    0.22568953    0.28676999    0.51360005    -0.29020000
opls_750-281    N    0.29010027    0.00780018    0.81356006    -0.25480000
opls_237-282    N    0.27888037    0.37880017    0.24074017    -0.46420000
opls_237-283    N    0.25242057    0.77401006    0.94855021    -0.46410000
opls_237-284    N    0.20141020    0.59256996    0.73927017    -0.46410000
opls_237-285    N    0.24075955    0.27705990    0.07679998    -0.46420000
opls_750-286    N    0.75313027    0.68538008    0.46766995    -0.29020000
opls_239-287    N    0.69759067    0.92635004    0.41740989    -0.13010000
opls_239-288    N    0.77228986    0.04610017    0.56708005    -0.13010000
opls_750-289    N    0.68622030    0.02789995    0.20240013    -0.30060000
opls_750-290    N    0.72568953    0.28676999    0.51360005    -0.29020000
opls_750-291    N    0.79010027    0.00780018    0.81356006    -0.25480000
opls_237-292    N    0.77888037    0.37880017    0.24074017    -0.46420000
opls_237-293    N    0.75240975    0.77401006    0.94855021    -0.46420000
opls_237-294    N    0.70141020    0.59256996    0.73927017    -0.46410000
opls_237-295    N    0.74075955    0.27705990    0.07679998    -0.46420000
opls_719-296    F    0.01891974    0.99316005    0.44044010    -0.08420000
opls_719-297    F    0.45008058    0.97900005    0.54431016    -0.08230000
opls_719-298    F    0.51891974    0.99316005    0.44044010    -0.08420000
opls_719-299    F    0.95008058    0.97900005    0.54431016    -0.08230000
opls_146-300    H    0.37777004    0.55346998    0.44898993    0.04770000
opls_146-301    H    0.23825048    0.60532997    0.42896010    0.04770000
opls_146-302    H    0.46322972    0.69919007    0.52397004    0.04770000
opls_146-303    H    0.11471970    0.64772013    0.54124998    0.04770000
opls_144-304    H    0.19191960    0.65449999    0.40814010    0.02820000
opls_146-305    H    0.08606035    0.74484993    0.49534993    0.04770000
opls_146-306    H    0.42347068    0.79923002    0.48758999    0.04770000
opls_146-307    H    0.40913004    0.74461992    0.35778008    0.04770000
opls_146-308    H    0.06152048    0.68866012    0.36573994    0.04770000
opls_146-309    H    0.46074038    0.81181012    0.36385016    0.04770000
opls_146-310    H    0.36909031    0.87851008    0.36232007    0.04770000
opls_146-311    H    0.09535040    0.88260009    0.46410995    0.04770000
opls_146-312    H    0.20109049    0.81839997    0.46880019    0.04770000
opls_146-313    H    0.28420018    0.00054996    0.41565013    0.04770000
opls_146-314    H    0.33963010    0.01963998    0.35438996    0.04770000
opls_146-315    H    0.14280972    0.90676994    0.28026995    0.04770000
opls_146-316    H    0.08843998    0.88700990    0.34220011    0.04770000
opls_146-317    H    0.07806938    0.04680997    0.50863997    0.04770000
opls_146-318    H    0.39124978    0.92541008    0.47642000    0.04770000
opls_146-319    H    0.10033996    0.09513002    0.62186016    0.04770000
opls_146-320    H    0.01223999    0.16171993    0.61928998    0.04770000
opls_146-321    H    0.27534981    0.15309010    0.51448990    0.04770000
opls_146-322    H    0.37693013    0.08897998    0.51985994    0.04770000
opls_146-323    H    0.38177970    0.08638998    0.64188016    0.04770000
opls_146-324    H    0.32926960    0.06740997    0.70441992    0.04770000
opls_146-325    H    0.13570031    0.95349001    0.63147001    0.04770000
opls_146-326    H    0.18507071    0.97228992    0.56989002    0.04770000
opls_146-327    H    0.35632986    0.90654989    0.24831000    0.04710000
opls_146-328    H    0.03224997    0.92033006    0.19956992    0.04770000
opls_146-329    H    0.49202020    0.04897000    0.25495993    0.04770000
opls_146-330    H    0.30219964    0.03526009    0.30040003    0.04770000
opls_144-331    H    0.17844022    0.96621982    0.17479988    0.02820000
opls_146-332    H    0.18613969    0.98651012    0.12480015    0.04770000
opls_146-333    H    0.33277988    0.00413001    0.07281990    0.04770000
opls_146-334    H    0.04944994    0.10200990    0.16431000    0.04770000
opls_146-335    H    0.38541945    0.08858015    0.21618999    0.04770000
opls_146-336    H    0.06730000    0.22866018    0.62477010    0.04780000
opls_146-337    H    0.41671033    0.28480020    0.61582012    0.04770000
opls_146-338    H    0.39119988    0.22680994    0.48665016    0.04770000
opls_146-339    H    0.05137992    0.17229997    0.49523003    0.04770000
opls_146-340    H    0.18547042    0.93904995    0.68757999    0.04780000
opls_146-341    H    0.00157067    0.92487995    0.73408012    0.04770000
opls_146-342    H    0.43111015    0.05314013    0.78310016    0.04780000
opls_146-343    H    0.10825031    0.06722006    0.73480009    0.04770000
opls_144-344    H    0.28688962    0.31850992    0.57260004    0.02820000
opls_144-345    H    0.30471042    0.94706013    0.78129011    0.02820000
opls_146-346    H    0.24254020    0.36719007    0.55127010    0.04770000
opls_146-347    H    0.10228041    0.41887002    0.53009992    0.04770000
opls_146-348    H    0.01530956    0.27259010    0.45734994    0.04770000
opls_146-349    H    0.24893949    0.06277007    0.88167009    0.04770000
opls_146-350    H    0.09904947    0.05393995    0.93789996    0.04770000
opls_146-351    H    0.42948055    0.93942014    0.85977012    0.04770000
opls_146-352    H    0.11131020    0.94291996    0.80850002    0.04770000
opls_146-353    H    0.02190969    0.12510006    0.11019987    0.04770000
opls_146-354    H    0.01177060    0.97905987    0.06974008    0.04780000
opls_146-355    H    0.31421978    0.12326017    0.99861004    0.04770000
opls_146-356    H    0.04540038    0.60102008    0.57310997    0.04770000
opls_146-357    H    0.30087039    0.49137998    0.59409003    0.04770000
opls_146-358    H    0.07895002    0.54284011    0.42914991    0.04770000
opls_146-359    H    0.32519980    0.60881996    0.61711012    0.04770000
opls_146-360    H    0.45678029    0.46145012    0.36232989    0.04770000
opls_146-361    H    0.44066967    0.44053012    0.28702996    0.04770000
opls_146-362    H    0.13673951    0.34282994    0.28768002    0.04780000
opls_146-363    H    0.15556043    0.36299989    0.36284994    0.04770000
opls_909-364    H    0.37915004    0.37366000    0.22330998    0.29840000
opls_909-365    H    0.17144053    0.37483002    0.22517001    0.29840000
opls_909-366    H    0.34947027    0.75527007    0.94359013    0.29840000
opls_909-367    H    0.14424968    0.76052002    0.95056018    0.29840000
opls_146-368    H    0.37375994    0.83006999    0.01168022    0.04770000
opls_146-369    H    0.39753959    0.90367996    0.01859017    0.04770000
opls_146-370    H    0.18934029    0.88241017    0.90025015    0.04710000
opls_146-371    H    0.16252017    0.80894002    0.89382007    0.04770000
opls_909-372    H    0.30869961    0.59653013    0.75492006    0.29850000
opls_909-373    H    0.10094041    0.59757011    0.75662003    0.29840000
opls_909-374    H    0.35031975    0.28867008    0.07291004    0.29840000
opls_909-375    H    0.14933041    0.29768008    0.08455992    0.29840000
opls_146-376    H    0.04034958    0.53077018    0.69254007    0.04770000
opls_146-377    H    0.02502043    0.51021011    0.61724014    0.04770000
opls_146-378    H    0.34361005    0.62888999    0.69275011    0.04770000
opls_146-379    H    0.07856044    0.22625989    0.01794993    0.04770000
opls_146-380    H    0.03896016    0.15259009    0.00886995    0.04770000
opls_146-381    H    0.30856028    0.16346003    0.11631012    0.04770000
opls_146-382    H    0.35086032    0.23693011    0.12482008    0.04770000
opls_146-383    H    0.46644999    0.92714004    0.91550018    0.04770000
opls_146-384    H    0.12235995    0.92704991    0.01503999    0.04770000
opls_146-385    H    0.41742997    0.06976013    0.94261013    0.04770000
opls_146-386    H    0.43637021    0.37034001    0.40791994    0.04770000
opls_146-387    H    0.40355047    0.42885996    0.55004019    0.04770000
opls_146-388    H    0.18222044    0.47990002    0.38559989    0.04770000
opls_146-389    H    0.36414967    0.32462011    0.43938007    0.04770000
opls_146-390    H    0.87777004    0.55346998    0.44898993    0.04780000
opls_146-391    H    0.73825048    0.60532997    0.42896010    0.04770000
opls_146-392    H    0.96322972    0.69919007    0.52397004    0.04770000
opls_146-393    H    0.61470996    0.64772013    0.54124998    0.04770000
opls_144-394    H    0.69191960    0.65449999    0.40814010    0.02820000
opls_146-395    H    0.58606035    0.74484993    0.49534993    0.04770000
opls_146-396    H    0.92347068    0.79923002    0.48758999    0.04770000
opls_146-397    H    0.90913004    0.74461992    0.35778008    0.04770000
opls_146-398    H    0.56152048    0.68866012    0.36573994    0.04770000
opls_146-399    H    0.96074038    0.81181012    0.36385016    0.04770000
opls_146-400    H    0.86909031    0.87851008    0.36232007    0.04770000
opls_146-401    H    0.59535040    0.88260009    0.46410995    0.04770000
opls_146-402    H    0.70109049    0.81839997    0.46880019    0.04770000
opls_146-403    H    0.78420018    0.00054996    0.41565013    0.04770000
opls_146-404    H    0.83962036    0.01963998    0.35438996    0.04770000
opls_146-405    H    0.64280972    0.90676994    0.28026995    0.04770000
opls_146-406    H    0.58843024    0.88700990    0.34220011    0.04770000
opls_146-407    H    0.57806938    0.04680997    0.50863997    0.04770000
opls_146-408    H    0.89124978    0.92541008    0.47642000    0.04770000
opls_146-409    H    0.60033996    0.09513002    0.62186016    0.04770000
opls_146-410    H    0.51223999    0.16171993    0.61928998    0.04770000
opls_146-411    H    0.77534981    0.15309010    0.51448990    0.04770000
opls_146-412    H    0.87693013    0.08897998    0.51985994    0.04780000
opls_146-413    H    0.88177970    0.08638998    0.64188016    0.04770000
opls_146-414    H    0.82926960    0.06740997    0.70441992    0.04770000
opls_146-415    H    0.63570031    0.95349001    0.63147001    0.04770000
opls_146-416    H    0.68507071    0.97228992    0.56989002    0.04770000
opls_146-417    H    0.85632986    0.90654989    0.24831000    0.04710000
opls_146-418    H    0.53224997    0.92033006    0.19956992    0.04770000
opls_146-419    H    0.99202020    0.04897000    0.25495993    0.04770000
opls_146-420    H    0.80219964    0.03526009    0.30040003    0.04770000
opls_144-421    H    0.67844022    0.96621982    0.17479988    0.02820000
opls_146-422    H    0.68613969    0.98651012    0.12480015    0.04770000
opls_146-423    H    0.83277988    0.00413001    0.07281990    0.04770000
opls_146-424    H    0.54944994    0.10200990    0.16431000    0.04770000
opls_146-425    H    0.88541945    0.08858015    0.21618999    0.04770000
opls_146-426    H    0.56730000    0.22866018    0.62477010    0.04770000
opls_146-427    H    0.91671033    0.28480020    0.61582012    0.04770000
opls_146-428    H    0.89119988    0.22680994    0.48665016    0.04770000
opls_146-429    H    0.55137992    0.17229997    0.49523003    0.04770000
opls_146-430    H    0.68547042    0.93904995    0.68757999    0.04770000
opls_146-431    H    0.50157067    0.92487995    0.73408012    0.04770000
opls_146-432    H    0.93111015    0.05314013    0.78310016    0.04770000
opls_146-433    H    0.60825031    0.06722006    0.73480009    0.04770000
opls_144-434    H    0.78688962    0.31850992    0.57260004    0.02820000
opls_144-435    H    0.80471042    0.94706013    0.78129011    0.02820000
opls_146-436    H    0.74254020    0.36719007    0.55127010    0.04770000
opls_146-437    H    0.60228041    0.41887002    0.53009992    0.04770000
opls_146-438    H    0.51530956    0.27259010    0.45734994    0.04770000
opls_146-439    H    0.74893949    0.06277007    0.88167009    0.04770000
opls_146-440    H    0.59904947    0.05393995    0.93789996    0.04770000
opls_146-441    H    0.92948055    0.93942014    0.85977012    0.04770000
opls_146-442    H    0.61131020    0.94291996    0.80850002    0.04770000
opls_146-443    H    0.52190969    0.12510006    0.11019987    0.04770000
opls_146-444    H    0.51177060    0.97905987    0.06974008    0.04770000
opls_146-445    H    0.81421978    0.12326017    0.99861004    0.04770000
opls_146-446    H    0.54540038    0.60102008    0.57310997    0.04770000
opls_146-447    H    0.80087039    0.49137998    0.59409003    0.04780000
opls_146-448    H    0.57895002    0.54284011    0.42914991    0.04770000
opls_146-449    H    0.82519980    0.60881996    0.61711012    0.04770000
opls_146-450    H    0.95677055    0.46145012    0.36232989    0.04770000
opls_146-451    H    0.94066967    0.44053012    0.28702996    0.04770000
opls_146-452    H    0.63673951    0.34282994    0.28768002    0.04770000
opls_146-453    H    0.65556043    0.36299989    0.36284994    0.04770000
opls_909-454    H    0.87915004    0.37366000    0.22330998    0.29840000
opls_909-455    H    0.67144053    0.37483002    0.22517001    0.29840000
opls_909-456    H    0.84947027    0.75527007    0.94359013    0.29850000
opls_909-457    H    0.64426050    0.76052002    0.95056018    0.30060000
opls_146-458    H    0.87375994    0.83006999    0.01168022    0.04770000
opls_146-459    H    0.89753959    0.90367996    0.01859017    0.04770000
opls_146-460    H    0.68934029    0.88241017    0.90025015    0.04770000
opls_146-461    H    0.66252017    0.80894002    0.89382007    0.04770000
opls_909-462    H    0.80869961    0.59653013    0.75492006    0.29850000
opls_909-463    H    0.60094041    0.59757011    0.75662003    0.29840000
opls_909-464    H    0.85031975    0.28867008    0.07291004    0.29850000
opls_909-465    H    0.64933041    0.29768008    0.08455992    0.29840000
opls_146-466    H    0.54034958    0.53077018    0.69254007    0.04770000
opls_146-467    H    0.52502043    0.51021011    0.61724014    0.04770000
opls_146-468    H    0.84361005    0.62888999    0.69275011    0.04770000
opls_146-469    H    0.57856044    0.22625989    0.01794993    0.04770000
opls_146-470    H    0.53896016    0.15259009    0.00886995    0.04770000
opls_146-471    H    0.80856028    0.16346003    0.11631012    0.04770000
opls_146-472    H    0.85086032    0.23693011    0.12482008    0.04770000
opls_146-473    H    0.96644999    0.92714004    0.91550018    0.04770000
opls_146-474    H    0.62235995    0.92704991    0.01503999    0.04770000
opls_146-475    H    0.91742997    0.06976013    0.94261013    0.04770000
opls_146-476    H    0.93637021    0.37034001    0.40791994    0.04770000
opls_146-477    H    0.90355047    0.42885996    0.55004019    0.04770000
opls_146-478    H    0.68222044    0.47990002    0.38559989    0.04770000
opls_146-479    H    0.86414967    0.32462011    0.43938007    0.04770000
