#======================================================================
# Crystal Data Generated By AuToFF
#----------------------------------------------------------------------

data_AuToFF_phase_1

_cell_length_a                         64.4930
_cell_length_b                         64.4930
_cell_length_c                         31.1324
_cell_angle_alpha                      90.00
_cell_angle_beta                       90.00
_cell_angle_gamma                      90.00
_symmetry_space_group_name_H-M_alt     'P 1'
_symmetry_space_group_IT_number        1

loop_
_space_group_symop_operation_xyz
   'x, y, z'

loop_
   _atom_site_label
   _atom_site_type_symbol
   _atom_site_fract_x
   _atom_site_fract_y
   _atom_site_fract_z
   _atom_site_charge
opls_145-0    C    0.41316003    0.49511001    0.53892986    -0.12050000
opls_145-1    C    0.39154994    0.49389996    0.53889999    -0.16860000
opls_145-2    C    0.31369001    0.50537004    0.46134991    -0.12570000
opls_700-3    C    0.05357000    0.49557999    0.11156994    0.07250000
opls_145-4    C    0.06367001    0.51350007    0.12584992    -0.11840000
opls_145-5    C    0.07813003    0.51231994    0.15912008    -0.17060000
opls_145-6    C    0.08255997    0.49332005    0.17884005    0.19150000
opls_145-7    C    0.07277007    0.47523002    0.16359002    -0.17010000
opls_145-8    C    0.05831997    0.47643000    0.13028003    -0.12010000
opls_142-9    C    0.09967004    0.47827004    0.24146998    0.06940000
opls_700-10    C    0.11452995    0.48044997    0.27720992    0.05630000
opls_145-11    C    0.11588002    0.46474005    0.30815999    -0.12020000
opls_145-12    C    0.12920999    0.46679004    0.34321993    -0.11890000
opls_700-13    C    0.14152001    0.48460996    0.34801011    0.06290000
opls_145-14    C    0.14038996    0.50020002    0.31658015    -0.12110000
opls_145-15    C    0.12703007    0.49815996    0.28154013    -0.11920000
opls_700-16    C    0.15503000    0.48714000    0.38625002    0.06460000
opls_145-17    C    0.16604004    0.47016994    0.40309003    -0.12020000
opls_145-18    C    0.17801994    0.47239995    0.44013985    -0.16870000
opls_916-19    C    0.17924007    0.49160994    0.46084015    0.16880000
opls_145-20    C    0.16858992    0.50864993    0.44395999    -0.16270000
opls_145-21    C    0.15657002    0.50645000    0.40695995    -0.12110000
opls_145-22    C    0.29214008    0.50336005    0.53879014    -0.13140000
opls_145-23    C    0.24582001    0.49900997    0.53867996    -0.12530000
opls_145-24    C    0.22428000    0.49693005    0.53861989    -0.16800000
opls_507-25    C    0.50135999    0.01663995    0.90905006    0.18420000
opls_507-26    C    0.50353000    0.04385995    0.03458005    0.18340000
opls_716-27    C    0.50533996    0.06434001    0.02188010    -0.20050000
opls_716-28    C    0.01052006    0.49916006    0.86645006    -0.20050000
opls_700-29    C    0.96255004    0.50304994    0.07776015    -0.07020000
opls_700-30    C    0.49701999    0.55302002    0.50000000    -0.07330000
opls_507-31    C    0.47835005    0.54172996    0.50000000    0.18340000
opls_716-32    C    0.45892996    0.55085994    0.50000000    -0.20050000
opls_700-33    C    0.42405005    0.49572992    0.50000000    0.07090000
opls_145-34    C    0.38069000    0.49336998    0.50000000    0.19390000
opls_700-35    C    0.28068007    0.50229002    0.50000000    0.06250000
opls_700-36    C    0.25726994    0.50006993    0.50000000    0.06140000
opls_916-37    C    0.21314003    0.49572992    0.50000000    0.16560000
opls_507-38    C    0.45610997    0.51683997    0.50000000    0.18340000
opls_716-39    C    0.44484998    0.53511001    0.50000000    -0.20050000
opls_142-40    C    0.34707999    0.50843999    0.50000000    0.07000000
opls_700-41    C    0.32450995    0.50634999    0.50000000    0.03650000
opls_145-42    C    0.58683997    0.50488999    0.53892986    -0.12050000
opls_145-43    C    0.60845006    0.50610004    0.53889999    -0.16860000
opls_145-44    C    0.68630999    0.49462996    0.46134991    -0.12560000
opls_700-45    C    0.94643000    0.50442001    0.11156994    0.07250000
opls_145-46    C    0.93632999    0.48649993    0.12584992    -0.11840000
opls_145-47    C    0.92186997    0.48768006    0.15912008    -0.17060000
opls_145-48    C    0.91744003    0.50667995    0.17884005    0.19150000
opls_145-49    C    0.92722993    0.52476998    0.16359002    -0.17010000
opls_145-50    C    0.94168003    0.52357000    0.13028003    -0.12010000
opls_142-51    C    0.90032996    0.52172996    0.24146998    0.06930000
opls_700-52    C    0.88547005    0.51955003    0.27720992    0.05620000
opls_145-53    C    0.88411998    0.53525995    0.30815999    -0.12020000
opls_145-54    C    0.87079001    0.53320996    0.34321993    -0.11890000
opls_700-55    C    0.85847999    0.51539004    0.34801011    0.06290000
opls_145-56    C    0.85961004    0.49979998    0.31658015    -0.12110000
opls_145-57    C    0.87296993    0.50184004    0.28154013    -0.11920000
opls_700-58    C    0.84497000    0.51286000    0.38625002    0.06460000
opls_145-59    C    0.83395996    0.52983006    0.40309003    -0.12020000
opls_145-60    C    0.82198006    0.52760005    0.44013985    -0.16870000
opls_916-61    C    0.82075993    0.50839006    0.46084015    0.16890000
opls_145-62    C    0.83141008    0.49135007    0.44395999    -0.16270000
opls_145-63    C    0.84342998    0.49355000    0.40695995    -0.12110000
opls_145-64    C    0.70785992    0.49663995    0.53879014    -0.13140000
opls_145-65    C    0.75417999    0.50099003    0.53867996    -0.12530000
opls_145-66    C    0.77572000    0.50306995    0.53861989    -0.16800000
opls_507-67    C    0.49864001    0.98336005    0.90905006    0.18420000
opls_507-68    C    0.49647000    0.95614005    0.03458005    0.18340000
opls_716-69    C    0.49466004    0.93565999    0.02188010    -0.20050000
opls_716-70    C    0.98947994    0.50083994    0.86645006    -0.20050000
opls_700-71    C    0.03744996    0.49695006    0.07776015    -0.07020000
opls_700-72    C    0.50298001    0.44697998    0.50000000    -0.07330000
opls_507-73    C    0.52164995    0.45827004    0.50000000    0.18350000
opls_716-74    C    0.54107004    0.44914006    0.50000000    -0.20050000
opls_700-75    C    0.57594995    0.50427008    0.50000000    0.07090000
opls_145-76    C    0.61931000    0.50663002    0.50000000    0.19390000
opls_700-77    C    0.71931993    0.49770998    0.50000000    0.06240000
opls_700-78    C    0.74273006    0.49993007    0.50000000    0.06140000
opls_916-79    C    0.78685997    0.50427008    0.50000000    0.16560000
opls_507-80    C    0.54389003    0.48316003    0.50000000    0.18340000
opls_716-81    C    0.55515002    0.46488999    0.50000000    -0.20050000
opls_142-82    C    0.65292001    0.49156001    0.50000000    0.07000000
opls_700-83    C    0.67549005    0.49365001    0.50000000    0.03650000
opls_145-84    C    0.50488999    0.41316003    0.53892986    -0.12050000
opls_145-85    C    0.50610004    0.39154994    0.53889999    -0.16860000
opls_145-86    C    0.49462996    0.31369001    0.46134991    -0.12570000
opls_700-87    C    0.50442001    0.05357000    0.11156994    0.07250000
opls_145-88    C    0.48649993    0.06367001    0.12584992    -0.11840000
opls_145-89    C    0.48768006    0.07813003    0.15912008    -0.17060000
opls_145-90    C    0.50667995    0.08255997    0.17884005    0.19150000
opls_145-91    C    0.52476998    0.07277007    0.16359002    -0.17010000
opls_145-92    C    0.52357000    0.05831997    0.13028003    -0.12010000
opls_142-93    C    0.52172996    0.09967004    0.24146998    0.06930000
opls_700-94    C    0.51955003    0.11452995    0.27720992    0.05620000
opls_145-95    C    0.53525995    0.11588002    0.30815999    -0.12020000
opls_145-96    C    0.53320996    0.12920999    0.34321993    -0.11890000
opls_700-97    C    0.51539004    0.14152001    0.34801011    0.06290000
opls_145-98    C    0.49979998    0.14038996    0.31658015    -0.12110000
opls_145-99    C    0.50184004    0.12703007    0.28154013    -0.11920000
opls_700-100    C    0.51286000    0.15503000    0.38625002    0.06460000
opls_145-101    C    0.52983006    0.16604004    0.40309003    -0.12020000
opls_145-102    C    0.52760005    0.17801994    0.44013985    -0.16870000
opls_916-103    C    0.50839006    0.17924007    0.46084015    0.16880000
opls_145-104    C    0.49135007    0.16858992    0.44395999    -0.16270000
opls_145-105    C    0.49355000    0.15657002    0.40695995    -0.12110000
opls_145-106    C    0.49663995    0.29214008    0.53879014    -0.13140000
opls_145-107    C    0.50099003    0.24582001    0.53867996    -0.12530000
opls_145-108    C    0.50306995    0.22428000    0.53861989    -0.16800000
opls_507-109    C    0.98336005    0.50135999    0.90905006    0.18420000
opls_507-110    C    0.95614005    0.50353000    0.03458005    0.18340000
opls_716-111    C    0.93565999    0.50533996    0.02188010    -0.20050000
opls_716-112    C    0.50083994    0.01052006    0.86645006    -0.20050000
opls_700-113    C    0.49695006    0.96255004    0.07776015    -0.07020000
opls_700-114    C    0.44697998    0.49701999    0.50000000    -0.07330000
opls_507-115    C    0.45827004    0.47835005    0.50000000    0.18340000
opls_716-116    C    0.44914006    0.45892996    0.50000000    -0.20050000
opls_700-117    C    0.50427008    0.42405005    0.50000000    0.07090000
opls_145-118    C    0.50663002    0.38069000    0.50000000    0.19390000
opls_700-119    C    0.49770998    0.28068007    0.50000000    0.06240000
opls_700-120    C    0.49993007    0.25726994    0.50000000    0.06140000
opls_916-121    C    0.50427008    0.21314003    0.50000000    0.16560000
opls_507-122    C    0.48316003    0.45610997    0.50000000    0.18340000
opls_716-123    C    0.46488999    0.44484998    0.50000000    -0.20050000
opls_142-124    C    0.49156001    0.34707999    0.50000000    0.07000000
opls_700-125    C    0.49365001    0.32450995    0.50000000    0.03650000
opls_145-126    C    0.49511001    0.58683997    0.53892986    -0.12050000
opls_145-127    C    0.49389996    0.60845006    0.53889999    -0.16860000
opls_145-128    C    0.50537004    0.68630999    0.46134991    -0.12570000
opls_700-129    C    0.49557999    0.94643000    0.11156994    0.07250000
opls_145-130    C    0.51350007    0.93632999    0.12584992    -0.11840000
opls_145-131    C    0.51231994    0.92186997    0.15912008    -0.17060000
opls_145-132    C    0.49332005    0.91744003    0.17884005    0.19150000
opls_145-133    C    0.47523002    0.92722993    0.16359002    -0.17010000
opls_145-134    C    0.47643000    0.94168003    0.13028003    -0.12000000
opls_142-135    C    0.47827004    0.90032996    0.24146998    0.06930000
opls_700-136    C    0.48044997    0.88547005    0.27720992    0.05620000
opls_145-137    C    0.46474005    0.88411998    0.30815999    -0.12020000
opls_145-138    C    0.46679004    0.87079001    0.34321993    -0.11890000
opls_700-139    C    0.48460996    0.85847999    0.34801011    0.06290000
opls_145-140    C    0.50020002    0.85961004    0.31658015    -0.12110000
opls_145-141    C    0.49815996    0.87296993    0.28154013    -0.11920000
opls_700-142    C    0.48714000    0.84497000    0.38625002    0.06460000
opls_145-143    C    0.47016994    0.83395996    0.40309003    -0.12020000
opls_145-144    C    0.47239995    0.82198006    0.44013985    -0.16870000
opls_916-145    C    0.49160994    0.82075993    0.46084015    0.16880000
opls_145-146    C    0.50864993    0.83141008    0.44395999    -0.16270000
opls_145-147    C    0.50645000    0.84342998    0.40695995    -0.12110000
opls_145-148    C    0.50336005    0.70785992    0.53879014    -0.13140000
opls_145-149    C    0.49900997    0.75417999    0.53867996    -0.12530000
opls_145-150    C    0.49693005    0.77572000    0.53861989    -0.16800000
opls_507-151    C    0.01663995    0.49864001    0.90905006    0.18420000
opls_507-152    C    0.04385995    0.49647000    0.03458005    0.18340000
opls_716-153    C    0.06434001    0.49466004    0.02188010    -0.20050000
opls_716-154    C    0.49916006    0.98947994    0.86645006    -0.20050000
opls_700-155    C    0.50304994    0.03744996    0.07776015    -0.07020000
opls_700-156    C    0.55302002    0.50298001    0.50000000    -0.07330000
opls_507-157    C    0.54172996    0.52164995    0.50000000    0.18340000
opls_716-158    C    0.55085994    0.54107004    0.50000000    -0.20050000
opls_700-159    C    0.49572992    0.57594995    0.50000000    0.07090000
opls_145-160    C    0.49336998    0.61931000    0.50000000    0.19390000
opls_700-161    C    0.50229002    0.71931993    0.50000000    0.06240000
opls_700-162    C    0.50006993    0.74273006    0.50000000    0.06140000
opls_916-163    C    0.49572992    0.78685997    0.50000000    0.16560000
opls_507-164    C    0.51683997    0.54389003    0.50000000    0.18340000
opls_716-165    C    0.53511001    0.55515002    0.50000000    -0.20050000
opls_142-166    C    0.50843999    0.65292001    0.50000000    0.07000000
opls_700-167    C    0.50634999    0.67549005    0.50000000    0.03650000
opls_145-168    C    0.58683997    0.50488999    0.46107014    -0.12050000
opls_145-169    C    0.60845006    0.50610004    0.46110001    -0.16860000
opls_145-170    C    0.68630999    0.49462996    0.53865009    -0.12570000
opls_700-171    C    0.94643000    0.50442001    0.88843006    0.07250000
opls_145-172    C    0.93632999    0.48649993    0.87415008    -0.11840000
opls_145-173    C    0.92186997    0.48768006    0.84087992    -0.17060000
opls_145-174    C    0.91744003    0.50667995    0.82115995    0.19150000
opls_145-175    C    0.92722993    0.52476998    0.83640998    -0.17010000
opls_145-176    C    0.94168003    0.52357000    0.86971997    -0.12010000
opls_142-177    C    0.90032996    0.52172996    0.75853002    0.06930000
opls_700-178    C    0.88547005    0.51955003    0.72279008    0.05620000
opls_145-179    C    0.88411998    0.53525995    0.69184001    -0.12020000
opls_145-180    C    0.87079001    0.53320996    0.65678007    -0.11890000
opls_700-181    C    0.85847999    0.51539004    0.65198989    0.06290000
opls_145-182    C    0.85961004    0.49979998    0.68341985    -0.12110000
opls_145-183    C    0.87296993    0.50184004    0.71845987    -0.11920000
opls_700-184    C    0.84497000    0.51286000    0.61374998    0.06460000
opls_145-185    C    0.83395996    0.52983006    0.59690997    -0.12020000
opls_145-186    C    0.82198006    0.52760005    0.55986015    -0.16870000
opls_916-187    C    0.82075993    0.50839006    0.53915985    0.16880000
opls_145-188    C    0.83141008    0.49135007    0.55604001    -0.16270000
opls_145-189    C    0.84342998    0.49355000    0.59304005    -0.12110000
opls_145-190    C    0.70785992    0.49663995    0.46120986    -0.13140000
opls_145-191    C    0.75417999    0.50099003    0.46132004    -0.12530000
opls_145-192    C    0.77572000    0.50306995    0.46138011    -0.16800000
opls_507-193    C    0.49864001    0.98336005    0.09094994    0.18420000
opls_507-194    C    0.49647000    0.95614005    0.96541995    0.18340000
opls_716-195    C    0.49466004    0.93565999    0.97811990    -0.20050000
opls_716-196    C    0.98947994    0.50083994    0.13354994    -0.20040000
opls_700-197    C    0.03744996    0.49695006    0.92223985    -0.07020000
opls_145-198    C    0.41316003    0.49511001    0.46107014    -0.12050000
opls_145-199    C    0.39154994    0.49389996    0.46110001    -0.16860000
opls_145-200    C    0.31369001    0.50537004    0.53865009    -0.12570000
opls_700-201    C    0.05357000    0.49557999    0.88843006    0.07250000
opls_145-202    C    0.06367001    0.51350007    0.87415008    -0.11840000
opls_145-203    C    0.07813003    0.51231994    0.84087992    -0.17060000
opls_145-204    C    0.08255997    0.49332005    0.82115995    0.19150000
opls_145-205    C    0.07277007    0.47523002    0.83640998    -0.17010000
opls_145-206    C    0.05831997    0.47643000    0.86971997    -0.12010000
opls_142-207    C    0.09967004    0.47827004    0.75853002    0.06930000
opls_700-208    C    0.11452995    0.48044997    0.72279008    0.05620000
opls_145-209    C    0.11588002    0.46474005    0.69184001    -0.12020000
opls_145-210    C    0.12920999    0.46679004    0.65678007    -0.11890000
opls_700-211    C    0.14152001    0.48460996    0.65198989    0.06290000
opls_145-212    C    0.14038996    0.50020002    0.68341985    -0.12110000
opls_145-213    C    0.12703007    0.49815996    0.71845987    -0.11910000
opls_700-214    C    0.15503000    0.48714000    0.61374998    0.06460000
opls_145-215    C    0.16604004    0.47016994    0.59690997    -0.12020000
opls_145-216    C    0.17801994    0.47239995    0.55986015    -0.16870000
opls_916-217    C    0.17924007    0.49160994    0.53915985    0.16890000
opls_145-218    C    0.16858992    0.50864993    0.55604001    -0.16270000
opls_145-219    C    0.15657002    0.50645000    0.59304005    -0.12110000
opls_145-220    C    0.29214008    0.50336005    0.46120986    -0.13140000
opls_145-221    C    0.24582001    0.49900997    0.46132004    -0.12530000
opls_145-222    C    0.22428000    0.49693005    0.46138011    -0.16800000
opls_507-223    C    0.50135999    0.01663995    0.09094994    0.18420000
opls_507-224    C    0.50353000    0.04385995    0.96541995    0.18350000
opls_716-225    C    0.50533996    0.06434001    0.97811990    -0.20050000
opls_716-226    C    0.01052006    0.49916006    0.13354994    -0.20050000
opls_700-227    C    0.96255004    0.50304994    0.92223985    -0.07020000
opls_145-228    C    0.49511001    0.58683997    0.46107014    -0.12050000
opls_145-229    C    0.49389996    0.60845006    0.46110001    -0.16860000
opls_145-230    C    0.50537004    0.68630999    0.53865009    -0.12570000
opls_700-231    C    0.49557999    0.94643000    0.88843006    0.07250000
opls_145-232    C    0.51350007    0.93632999    0.87415008    -0.11840000
opls_145-233    C    0.51231994    0.92186997    0.84087992    -0.17050000
opls_145-234    C    0.49332005    0.91744003    0.82115995    0.19150000
opls_145-235    C    0.47523002    0.92722993    0.83640998    -0.17000000
opls_145-236    C    0.47643000    0.94168003    0.86971997    -0.12010000
opls_142-237    C    0.47827004    0.90032996    0.75853002    0.06930000
opls_700-238    C    0.48044997    0.88547005    0.72279008    0.05620000
opls_145-239    C    0.46474005    0.88411998    0.69184001    -0.12020000
opls_145-240    C    0.46679004    0.87079001    0.65678007    -0.11890000
opls_700-241    C    0.48460996    0.85847999    0.65198989    0.06290000
opls_145-242    C    0.50020002    0.85961004    0.68341985    -0.12110000
opls_145-243    C    0.49815996    0.87296993    0.71845987    -0.11920000
opls_700-244    C    0.48714000    0.84497000    0.61374998    0.06460000
opls_145-245    C    0.47016994    0.83395996    0.59690997    -0.12020000
opls_145-246    C    0.47239995    0.82198006    0.55986015    -0.16870000
opls_916-247    C    0.49160994    0.82075993    0.53915985    0.16880000
opls_145-248    C    0.50864993    0.83141008    0.55604001    -0.16270000
opls_145-249    C    0.50645000    0.84342998    0.59304005    -0.12110000
opls_145-250    C    0.50336005    0.70785992    0.46120986    -0.13140000
opls_145-251    C    0.49900997    0.75417999    0.46132004    -0.12530000
opls_145-252    C    0.49693005    0.77572000    0.46138011    -0.16800000
opls_507-253    C    0.01663995    0.49864001    0.09094994    0.18420000
opls_507-254    C    0.04385995    0.49647000    0.96541995    0.18340000
opls_716-255    C    0.06434001    0.49466004    0.97811990    -0.20050000
opls_716-256    C    0.49916006    0.98947994    0.13354994    -0.20050000
opls_700-257    C    0.50304994    0.03744996    0.92223985    -0.07020000
opls_145-258    C    0.50488999    0.41316003    0.46107014    -0.12050000
opls_145-259    C    0.50610004    0.39154994    0.46110001    -0.16860000
opls_145-260    C    0.49462996    0.31369001    0.53865009    -0.12570000
opls_700-261    C    0.50442001    0.05357000    0.88843006    0.07250000
opls_145-262    C    0.48649993    0.06367001    0.87415008    -0.11840000
opls_145-263    C    0.48768006    0.07813003    0.84087992    -0.17060000
opls_145-264    C    0.50667995    0.08255997    0.82115995    0.19150000
opls_145-265    C    0.52476998    0.07277007    0.83640998    -0.17000000
opls_145-266    C    0.52357000    0.05831997    0.86971997    -0.12010000
opls_142-267    C    0.52172996    0.09967004    0.75853002    0.06930000
opls_700-268    C    0.51955003    0.11452995    0.72279008    0.05620000
opls_145-269    C    0.53525995    0.11588002    0.69184001    -0.12010000
opls_145-270    C    0.53320996    0.12920999    0.65678007    -0.11890000
opls_700-271    C    0.51539004    0.14152001    0.65198989    0.06290000
opls_145-272    C    0.49979998    0.14038996    0.68341985    -0.12110000
opls_145-273    C    0.50184004    0.12703007    0.71845987    -0.11920000
opls_700-274    C    0.51286000    0.15503000    0.61374998    0.06460000
opls_145-275    C    0.52983006    0.16604004    0.59690997    -0.12020000
opls_145-276    C    0.52760005    0.17801994    0.55986015    -0.16870000
opls_916-277    C    0.50839006    0.17924007    0.53915985    0.16880000
opls_145-278    C    0.49135007    0.16858992    0.55604001    -0.16260000
opls_145-279    C    0.49355000    0.15657002    0.59304005    -0.12110000
opls_145-280    C    0.49663995    0.29214008    0.46120986    -0.13130000
opls_145-281    C    0.50099003    0.24582001    0.46132004    -0.12530000
opls_145-282    C    0.50306995    0.22428000    0.46138011    -0.16800000
opls_507-283    C    0.98336005    0.50135999    0.09094994    0.18420000
opls_507-284    C    0.95614005    0.50353000    0.96541995    0.18340000
opls_716-285    C    0.93565999    0.50533996    0.97811990    -0.20050000
opls_716-286    C    0.50083994    0.01052006    0.13354994    -0.20050000
opls_700-287    C    0.49695006    0.96255004    0.92223985    -0.07020000
opls_750-288    N    0.09697006    0.49320004    0.21404004    -0.35380000
opls_750-289    N    0.35862001    0.49202999    0.50000000    -0.29810000
opls_542-290    N    0.47671995    0.52079993    0.50000000    -0.28490000
opls_239-291    N    0.19075993    0.49361993    0.50000000    -0.14070000
opls_542-292    N    0.96882995    0.50241995    0.00000000    -0.29750000
opls_542-293    N    0.00000000    0.50000000    0.06456007    -0.29670000
opls_750-294    N    0.90302994    0.50679996    0.21404004    -0.35400000
opls_750-295    N    0.64137999    0.50797001    0.50000000    -0.29810000
opls_542-296    N    0.52328005    0.47920007    0.50000000    -0.28480000
opls_239-297    N    0.80924007    0.50638007    0.50000000    -0.14070000
opls_542-298    N    0.03117005    0.49758005    0.00000000    -0.29750000
opls_750-299    N    0.50679996    0.09697006    0.21404004    -0.35400000
opls_750-300    N    0.50797001    0.35862001    0.50000000    -0.29800000
opls_542-301    N    0.47920007    0.47671995    0.50000000    -0.28490000
opls_239-302    N    0.50638007    0.19075993    0.50000000    -0.14070000
opls_542-303    N    0.49758005    0.96882995    0.00000000    -0.29750000
opls_542-304    N    0.50000000    0.00000000    0.06456007    -0.29670000
opls_750-305    N    0.49320004    0.90302994    0.21404004    -0.35390000
opls_750-306    N    0.49202999    0.64137999    0.50000000    -0.29800000
opls_542-307    N    0.52079993    0.52328005    0.50000000    -0.28490000
opls_239-308    N    0.49361993    0.80924007    0.50000000    -0.14070000
opls_542-309    N    0.50241995    0.03117005    0.00000000    -0.29750000
opls_750-310    N    0.90302994    0.50679996    0.78595996    -0.35400000
opls_542-311    N    0.00000000    0.50000000    0.93543993    -0.29670000
opls_750-312    N    0.09697006    0.49320004    0.78595996    -0.35400000
opls_750-313    N    0.49320004    0.90302994    0.78595996    -0.35400000
opls_542-314    N    0.50000000    0.00000000    0.93543993    -0.29670000
opls_750-315    N    0.50679996    0.09697006    0.78595996    -0.35400000
opls_146-316    H    0.42142000    0.49555006    0.56916010    0.11630000
opls_146-317    H    0.38322996    0.49340998    0.56904993    0.12140000
opls_146-318    H    0.32194998    0.50612997    0.43112995    0.11640000
opls_146-319    H    0.06014994    0.52837998    0.11156994    0.11970000
opls_146-320    H    0.08565999    0.52632007    0.17018990    0.12140000
opls_146-321    H    0.07618005    0.46016994    0.17690991    0.11830000
opls_146-322    H    0.05069000    0.46245996    0.11926000    0.11670000
opls_144-323    H    0.09038996    0.46434001    0.23996993    0.12010000
opls_146-324    H    0.10636999    0.45097995    0.30556012    0.11630000
opls_146-325    H    0.12949995    0.45464004    0.36714998    0.11750000
opls_146-326    H    0.14989007    0.51397004    0.31903001    0.12140000
opls_146-327    H    0.12639000    0.51048998    0.25803986    0.11920000
opls_146-328    H    0.16539997    0.45517994    0.38758014    0.11750000
opls_146-329    H    0.18622998    0.45916999    0.45302000    0.11920000
opls_146-330    H    0.16945002    0.52355000    0.45974997    0.11780000
opls_146-331    H    0.14809003    0.51975005    0.39516998    0.12060000
opls_146-332    H    0.28496007    0.50267998    0.56989985    0.09610000
opls_146-333    H    0.25300002    0.49977005    0.56977008    0.09610000
opls_146-334    H    0.21640007    0.49628998    0.56923013    0.11780000
opls_547-335    H    0.50659002    0.07791993    0.04207996    0.12030000
opls_547-336    H    0.02020995    0.49839998    0.83815992    0.12030000
opls_547-337    H    0.45523995    0.56722001    0.50000000    0.12140000
opls_547-338    H    0.42817996    0.53693998    0.50000000    0.12140000
opls_144-339    H    0.35391004    0.52377995    0.50000000    0.10560000
opls_146-340    H    0.57858000    0.50444994    0.56916010    0.11630000
opls_146-341    H    0.61677004    0.50659002    0.56904993    0.12140000
opls_146-342    H    0.67805002    0.49387003    0.43112995    0.11640000
opls_146-343    H    0.93985006    0.47162002    0.11156994    0.11970000
opls_146-344    H    0.91434001    0.47367993    0.17018990    0.12140000
opls_146-345    H    0.92381995    0.53983006    0.17690991    0.11830000
opls_146-346    H    0.94931000    0.53754004    0.11926000    0.11670000
opls_144-347    H    0.90961004    0.53565999    0.23996993    0.12010000
opls_146-348    H    0.89363001    0.54902005    0.30556012    0.11630000
opls_146-349    H    0.87050005    0.54535996    0.36714998    0.11750000
opls_146-350    H    0.85010993    0.48602996    0.31903001    0.12140000
opls_146-351    H    0.87361000    0.48951002    0.25803986    0.11920000
opls_146-352    H    0.83460003    0.54482006    0.38758014    0.11750000
opls_146-353    H    0.81377002    0.54083001    0.45302000    0.11920000
opls_146-354    H    0.83054998    0.47645000    0.45974997    0.11780000
opls_146-355    H    0.85190997    0.48024995    0.39516998    0.12050000
opls_146-356    H    0.71503993    0.49732002    0.56989985    0.09610000
opls_146-357    H    0.74699998    0.50022995    0.56977008    0.09610000
opls_146-358    H    0.78359993    0.50371002    0.56923013    0.11780000
opls_547-359    H    0.49340998    0.92208007    0.04207996    0.12030000
opls_547-360    H    0.97979005    0.50160002    0.83815992    0.12030000
opls_547-361    H    0.54476005    0.43277999    0.50000000    0.12140000
opls_547-362    H    0.57182004    0.46306002    0.50000000    0.12140000
opls_144-363    H    0.64608996    0.47622005    0.50000000    0.10560000
opls_146-364    H    0.50444994    0.42142000    0.56916010    0.11630000
opls_146-365    H    0.50659002    0.38322996    0.56904993    0.12140000
opls_146-366    H    0.49387003    0.32194998    0.43112995    0.11650000
opls_146-367    H    0.47162002    0.06014994    0.11156994    0.11970000
opls_146-368    H    0.47367993    0.08565999    0.17018990    0.12150000
opls_146-369    H    0.53983006    0.07618005    0.17690991    0.11840000
opls_146-370    H    0.53754004    0.05069000    0.11926000    0.11670000
opls_144-371    H    0.53565999    0.09038996    0.23996993    0.12010000
opls_146-372    H    0.54902005    0.10636999    0.30556012    0.11630000
opls_146-373    H    0.54535996    0.12949995    0.36714998    0.11750000
opls_146-374    H    0.48602996    0.14989007    0.31903001    0.12140000
opls_146-375    H    0.48951002    0.12639000    0.25803986    0.11920000
opls_146-376    H    0.54482006    0.16539997    0.38758014    0.11760000
opls_146-377    H    0.54083001    0.18622998    0.45302000    0.11920000
opls_146-378    H    0.47645000    0.16945002    0.45974997    0.11780000
opls_146-379    H    0.48024995    0.14809003    0.39516998    0.12050000
opls_146-380    H    0.49732002    0.28496007    0.56989985    0.09620000
opls_146-381    H    0.50022995    0.25300002    0.56977008    0.09610000
opls_146-382    H    0.50371002    0.21640007    0.56923013    0.11780000
opls_547-383    H    0.92208007    0.50659002    0.04207996    0.12030000
opls_547-384    H    0.50160002    0.02020995    0.83815992    0.12030000
opls_547-385    H    0.43277999    0.45523995    0.50000000    0.12140000
opls_547-386    H    0.46306002    0.42817996    0.50000000    0.12140000
opls_144-387    H    0.47622005    0.35391004    0.50000000    0.10560000
opls_146-388    H    0.49555006    0.57858000    0.56916010    0.11630000
opls_146-389    H    0.49340998    0.61677004    0.56904993    0.12140000
opls_146-390    H    0.50612997    0.67805002    0.43112995    0.11640000
opls_146-391    H    0.52837998    0.93985006    0.11156994    0.11970000
opls_146-392    H    0.52632007    0.91434001    0.17018990    0.12140000
opls_146-393    H    0.46016994    0.92381995    0.17690991    0.11830000
opls_146-394    H    0.46245996    0.94931000    0.11926000    0.11670000
opls_144-395    H    0.46434001    0.90961004    0.23996993    0.12010000
opls_146-396    H    0.45097995    0.89363001    0.30556012    0.11630000
opls_146-397    H    0.45464004    0.87050005    0.36714998    0.11750000
opls_146-398    H    0.51397004    0.85010993    0.31903001    0.12140000
opls_146-399    H    0.51048998    0.87361000    0.25803986    0.11930000
opls_146-400    H    0.45517994    0.83460003    0.38758014    0.11750000
opls_146-401    H    0.45916999    0.81377002    0.45302000    0.11920000
opls_146-402    H    0.52355000    0.83054998    0.45974997    0.11780000
opls_146-403    H    0.51975005    0.85190997    0.39516998    0.12050000
opls_146-404    H    0.50267998    0.71503993    0.56989985    0.09610000
opls_146-405    H    0.49977005    0.74699998    0.56977008    0.09610000
opls_146-406    H    0.49628998    0.78359993    0.56923013    0.11780000
opls_547-407    H    0.07791993    0.49340998    0.04207996    0.12030000
opls_547-408    H    0.49839998    0.97979005    0.83815992    0.12030000
opls_547-409    H    0.56722001    0.54476005    0.50000000    0.12140000
opls_547-410    H    0.53693998    0.57182004    0.50000000    0.12140000
opls_144-411    H    0.52377995    0.64608996    0.50000000    0.10560000
opls_146-412    H    0.57858000    0.50444994    0.43083990    0.11630000
opls_146-413    H    0.61677004    0.50659002    0.43095007    0.12140000
opls_146-414    H    0.67805002    0.49387003    0.56887005    0.11640000
opls_146-415    H    0.93985006    0.47162002    0.88843006    0.11970000
opls_146-416    H    0.91434001    0.47367993    0.82981010    0.12140000
opls_146-417    H    0.92381995    0.53983006    0.82309009    0.11830000
opls_146-418    H    0.94931000    0.53754004    0.88074000    0.11670000
opls_144-419    H    0.90961004    0.53565999    0.76003007    0.12010000
opls_146-420    H    0.89363001    0.54902005    0.69443988    0.11630000
opls_146-421    H    0.87050005    0.54535996    0.63285002    0.11760000
opls_146-422    H    0.85010993    0.48602996    0.68096999    0.12140000
opls_146-423    H    0.87361000    0.48951002    0.74196014    0.11920000
opls_146-424    H    0.83460003    0.54482006    0.61241986    0.11750000
opls_146-425    H    0.81377002    0.54083001    0.54698000    0.11920000
opls_146-426    H    0.83054998    0.47645000    0.54025003    0.11780000
opls_146-427    H    0.85190997    0.48024995    0.60483002    0.12050000
opls_146-428    H    0.71503993    0.49732002    0.43010015    0.09610000
opls_146-429    H    0.74699998    0.50022995    0.43022992    0.09610000
opls_146-430    H    0.78359993    0.50371002    0.43076987    0.11780000
opls_547-431    H    0.49340998    0.92208007    0.95792004    0.12030000
opls_547-432    H    0.97979005    0.50160002    0.16184008    0.12030000
opls_146-433    H    0.42142000    0.49555006    0.43083990    0.11640000
opls_146-434    H    0.38322996    0.49340998    0.43095007    0.12140000
opls_146-435    H    0.32194998    0.50612997    0.56887005    0.11640000
opls_146-436    H    0.06014994    0.52837998    0.88843006    0.11970000
opls_146-437    H    0.08565999    0.52632007    0.82981010    0.12140000
opls_146-438    H    0.07618005    0.46016994    0.82309009    0.11830000
opls_146-439    H    0.05069000    0.46245996    0.88074000    0.11670000
opls_144-440    H    0.09038996    0.46434001    0.76003007    0.12010000
opls_146-441    H    0.10636999    0.45097995    0.69443988    0.11630000
opls_146-442    H    0.12949995    0.45464004    0.63285002    0.11750000
opls_146-443    H    0.14989007    0.51397004    0.68096999    0.12140000
opls_146-444    H    0.12639000    0.51048998    0.74196014    0.11920000
opls_146-445    H    0.16539997    0.45517994    0.61241986    0.11750000
opls_146-446    H    0.18622998    0.45916999    0.54698000    0.11920000
opls_146-447    H    0.16945002    0.52355000    0.54025003    0.11780000
opls_146-448    H    0.14809003    0.51975005    0.60483002    0.12050000
opls_146-449    H    0.28496007    0.50267998    0.43010015    0.09610000
opls_146-450    H    0.25300002    0.49977005    0.43022992    0.09610000
opls_146-451    H    0.21640007    0.49628998    0.43076987    0.11780000
opls_547-452    H    0.50659002    0.07791993    0.95792004    0.12030000
opls_547-453    H    0.02020995    0.49839998    0.16184008    0.12040000
opls_146-454    H    0.49555006    0.57858000    0.43083990    0.11630000
opls_146-455    H    0.49340998    0.61677004    0.43095007    0.12140000
opls_146-456    H    0.50612997    0.67805002    0.56887005    0.11640000
opls_146-457    H    0.52837998    0.93985006    0.88843006    0.11970000
opls_146-458    H    0.52632007    0.91434001    0.82981010    0.12140000
opls_146-459    H    0.46016994    0.92381995    0.82309009    0.11830000
opls_146-460    H    0.46245996    0.94931000    0.88074000    0.11670000
opls_144-461    H    0.46434001    0.90961004    0.76003007    0.12010000
opls_146-462    H    0.45097995    0.89363001    0.69443988    0.11630000
opls_146-463    H    0.45464004    0.87050005    0.63285002    0.11750000
opls_146-464    H    0.51397004    0.85010993    0.68096999    0.12150000
opls_146-465    H    0.51048998    0.87361000    0.74196014    0.11920000
opls_146-466    H    0.45517994    0.83460003    0.61241986    0.11750000
opls_146-467    H    0.45916999    0.81377002    0.54698000    0.11920000
opls_146-468    H    0.52355000    0.83054998    0.54025003    0.11780000
opls_146-469    H    0.51975005    0.85190997    0.60483002    0.12050000
opls_146-470    H    0.50267998    0.71503993    0.43010015    0.09610000
opls_146-471    H    0.49977005    0.74699998    0.43022992    0.09610000
opls_146-472    H    0.49628998    0.78359993    0.43076987    0.11780000
opls_547-473    H    0.07791993    0.49340998    0.95792004    0.12030000
opls_547-474    H    0.49839998    0.97979005    0.16184008    0.12030000
opls_146-475    H    0.50444994    0.42142000    0.43083990    0.11640000
opls_146-476    H    0.50659002    0.38322996    0.43095007    0.12140000
opls_146-477    H    0.49387003    0.32194998    0.56887005    0.11640000
opls_146-478    H    0.47162002    0.06014994    0.88843006    0.11970000
opls_146-479    H    0.47367993    0.08565999    0.82981010    0.12140000
opls_146-480    H    0.53983006    0.07618005    0.82309009    0.11830000
opls_146-481    H    0.53754004    0.05069000    0.88074000    0.11670000
opls_144-482    H    0.53565999    0.09038996    0.76003007    0.12010000
opls_146-483    H    0.54902005    0.10636999    0.69443988    0.11640000
opls_146-484    H    0.54535996    0.12949995    0.63285002    0.11750000
opls_146-485    H    0.48602996    0.14989007    0.68096999    0.12140000
opls_146-486    H    0.48951002    0.12639000    0.74196014    0.11920000
opls_146-487    H    0.54482006    0.16539997    0.61241986    0.11750000
opls_146-488    H    0.54083001    0.18622998    0.54698000    0.11920000
opls_146-489    H    0.47645000    0.16945002    0.54025003    0.11780000
opls_146-490    H    0.48024995    0.14809003    0.60483002    0.12050000
opls_146-491    H    0.49732002    0.28496007    0.43010015    0.09610000
opls_146-492    H    0.50022995    0.25300002    0.43022992    0.09610000
opls_146-493    H    0.50371002    0.21640007    0.43076987    0.11780000
opls_547-494    H    0.92208007    0.50659002    0.95792004    0.12030000
opls_547-495    H    0.50160002    0.02020995    0.16184008    0.12030000
