#======================================================================
# Crystal Data Generated By AuToFF
#----------------------------------------------------------------------

data_AuToFF_phase_1

_cell_length_a                         26.4000
_cell_length_b                         39.0000
_cell_length_c                         19.0000
_cell_angle_alpha                      90.10
_cell_angle_beta                       88.20
_cell_angle_gamma                      90.00
_symmetry_space_group_name_H-M_alt     'P 1'
_symmetry_space_group_IT_number        1

loop_
_space_group_symop_operation_xyz
   'x, y, z'

loop_
   _atom_site_label
   _atom_site_type_symbol
   _atom_site_fract_x
   _atom_site_fract_y
   _atom_site_fract_z
   _atom_site_charge
opls_750-0    N    0.30341987    0.35493011    0.14457995    -0.21650000
opls_750-1    N    0.15220016    0.16716008    0.15811981    -0.21580000
opls_750-2    N    0.65206021    0.66736006    0.14421977    -0.21580000
opls_750-3    N    0.80323991    0.85489001    0.15864006    -0.21580000
opls_750-4    N    0.65313015    0.35500010    0.15933988    -0.21580000
opls_750-5    N    0.80405020    0.16714999    0.14353996    -0.21600000
opls_750-6    N    0.30397989    0.66728006    0.15899972    -0.21650000
opls_750-7    N    0.15313003    0.85486987    0.14279012    -0.21650000
opls_750-8    N    0.29458999    0.59938005    0.63485988    -0.21580000
opls_750-9    N    0.14337019    0.41161000    0.64836972    -0.21580000
opls_750-10    N    0.64320007    0.91186008    0.63489990    -0.21600000
opls_750-11    N    0.79438007    0.09938001    0.64928965    -0.21580000
opls_750-12    N    0.64250994    0.59952000    0.65018009    -0.21600000
opls_750-13    N    0.79342023    0.41166988    0.63435963    -0.21580000
opls_750-14    N    0.29332008    0.91174010    0.65000000    -0.21580000
opls_750-15    N    0.14248000    0.09932988    0.63375986    -0.21580000
opls_142-16    C    0.33979993    0.36164991    0.10002001    0.09080000
opls_700-17    C    0.36608992    0.39336009    0.10806978    0.07760000
opls_145-18    C    0.40995988    0.39956992    0.06775984    -0.13150000
opls_145-19    C    0.43872986    0.42822994    0.08255979    -0.06840000
opls_700-20    C    0.42348021    0.44988989    0.13798985    0.11710000
opls_145-21    C    0.37888986    0.44407997    0.17699020    -0.09590000
opls_145-22    C    0.35035998    0.41563001    0.16225975    -0.12890000
opls_700-23    C    0.45178020    0.48045998    0.15106000    0.04050000
opls_142-24    C    0.11591005    0.16043990    0.20283983    0.09080000
opls_700-25    C    0.08980987    0.12863002    0.19513970    0.07760000
opls_145-26    C    0.04598021    0.12238999    0.23551020    -0.13150000
opls_145-27    C    0.01740005    0.09359997    0.22100987    -0.06840000
opls_700-28    C    0.03283003    0.07184997    0.16582994    0.11710000
opls_145-29    C    0.07740014    0.07766988    0.12682011    -0.09280000
opls_145-30    C    0.10573016    0.10625011    0.14125989    -0.12890000
opls_700-31    C    0.00456003    0.04128008    0.15268975    0.04060000
opls_136-32    C    0.13736005    0.22678011    0.14095974    0.06990000
opls_136-33    C    0.21851011    0.19586002    0.09651986    0.06820000
opls_139-34    C    0.17815008    0.19934003    0.15684970    0.16730000
opls_136-35    C    0.25356993    0.31820990    0.07256011    0.06990000
opls_136-36    C    0.31822012    0.29528997    0.16160995    0.06990000
opls_136-37    C    0.23706021    0.32622007    0.20604984    0.06820000
opls_139-38    C    0.27743986    0.32274007    0.14574000    0.16740000
opls_136-39    C    0.20205000    0.20388993    0.23001011    0.06990000
opls_142-40    C    0.61788000    0.66052991    0.09941023    0.09150000
opls_700-41    C    0.59149005    0.62870996    0.10730993    0.07760000
opls_145-42    C    0.54948016    0.62231003    0.06697998    -0.12660000
opls_145-43    C    0.52032991    0.59352000    0.08171990    -0.09610000
opls_700-44    C    0.53334003    0.57192988    0.13706992    0.11640000
opls_145-45    C    0.57613021    0.57791995    0.17605973    -0.09600000
opls_145-46    C    0.60503002    0.60649004    0.16138985    -0.12840000
opls_700-47    C    0.50457013    0.54134997    0.15045022    0.04060000
opls_142-48    C    0.83743988    0.86168989    0.20343012    0.09150000
opls_700-49    C    0.86406997    0.89340997    0.19537982    0.07760000
opls_145-50    C    0.90606995    0.89970996    0.23577981    -0.12210000
opls_145-51    C    0.93551011    0.92834987    0.22089981    -0.06830000
opls_700-52    C    0.92279019    0.94989006    0.16533022    0.11640000
opls_145-53    C    0.88003000    0.94399988    0.12621981    -0.09600000
opls_145-54    C    0.85085013    0.91555991    0.14102977    -0.12770000
opls_700-55    C    0.95169003    0.98042988    0.15215001    0.04050000
opls_136-56    C    0.81869014    0.79520009    0.14184017    0.06990000
opls_136-57    C    0.73987020    0.82621988    0.09665993    0.06820000
opls_139-58    C    0.77725021    0.82273992    0.15732994    0.16730000
opls_136-59    C    0.70548994    0.70392996    0.07263014    0.06990000
opls_136-60    C    0.63655997    0.72705003    0.16107021    0.06990000
opls_136-61    C    0.71538008    0.69603999    0.20625994    0.06820000
opls_139-62    C    0.67801000    0.69951993    0.14556991    0.16720000
opls_136-63    C    0.74977019    0.81832991    0.23028972    0.06990000
opls_142-64    C    0.61671996    0.36154987    0.20400988    0.09030000
opls_700-65    C    0.59041021    0.39328007    0.19669995    0.07760000
opls_145-66    C    0.54663013    0.39933001    0.23734005    -0.12770000
opls_145-67    C    0.51783995    0.42806012    0.22329995    -0.06820000
opls_700-68    C    0.53298994    0.44994001    0.16829010    0.11640000
opls_145-69    C    0.57748987    0.44428990    0.12895011    -0.09600000
opls_145-70    C    0.60603990    0.41577000    0.14294019    -0.10200000
opls_700-71    C    0.50456016    0.48050012    0.15575021    0.04010000
opls_142-72    C    0.84046987    0.16059000    0.09891999    0.09030000
opls_700-73    C    0.86661014    0.12878002    0.10616989    0.07760000
opls_145-74    C    0.91042986    0.12265994    0.06566986    -0.12840000
opls_145-75    C    0.93900011    0.09382005    0.07966994    -0.06820000
opls_700-76    C    0.92357016    0.07189998    0.13448022    0.11640000
opls_145-77    C    0.87901991    0.07761995    0.17365012    -0.09600000
opls_145-78    C    0.85070019    0.10624990    0.15971007    -0.13150000
opls_700-79    C    0.95185003    0.04128999    0.14715017    0.04050000
opls_136-80    C    0.81891014    0.22670988    0.16180005    0.06990000
opls_136-81    C    0.73757003    0.19570988    0.20522996    0.06820000
opls_139-82    C    0.77814018    0.19935012    0.14518973    0.16740000
opls_136-83    C    0.70272989    0.31801996    0.23095005    0.06990000
opls_136-84    C    0.63830006    0.29544997    0.14109981    0.06990000
opls_136-85    C    0.71964017    0.32644997    0.09766990    0.06820000
opls_139-86    C    0.67907002    0.32280999    0.15771013    0.16740000
opls_136-87    C    0.75447994    0.20413989    0.07194981    0.06990000
opls_142-88    C    0.33818987    0.66071003    0.20389982    0.09030000
opls_700-89    C    0.36463021    0.62888008    0.19671996    0.07760000
opls_145-90    C    0.40652006    0.62273006    0.23740008    -0.10200000
opls_145-91    C    0.43569004    0.59386002    0.22348004    -0.06840000
opls_700-92    C    0.42277999    0.57193000    0.16857972    0.11710000
opls_145-93    C    0.38012021    0.57768011    0.12919971    -0.09600000
opls_145-94    C    0.35120007    0.60634010    0.14305972    -0.12890000
opls_700-95    C    0.45163012    0.54132002    0.15593978    0.04060000
opls_142-96    C    0.11883014    0.86147002    0.09803008    0.09080000
opls_700-97    C    0.09220015    0.89320008    0.10564016    0.07760000
opls_145-98    C    0.05023993    0.89933996    0.06509010    -0.10200000
opls_145-99    C    0.02083002    0.92805988    0.07946984    -0.06820000
opls_700-100    C    0.03355012    0.94983994    0.13472981    0.11710000
opls_145-101    C    0.07626004    0.94409001    0.17401978    -0.09600000
opls_145-102    C    0.10541011    0.91557988    0.15969006    -0.13160000
opls_700-103    C    0.00466015    0.98043002    0.14748981    0.04060000
opls_136-104    C    0.13761999    0.79527011    0.16055996    0.06990000
opls_136-105    C    0.21667021    0.82640005    0.20481975    0.06820000
opls_139-106    C    0.17907986    0.82270999    0.14443988    0.16740000
opls_136-107    C    0.25078989    0.70417991    0.23028972    0.06990000
opls_136-108    C    0.31951991    0.72687998    0.14110981    0.06990000
opls_136-109    C    0.24047992    0.69575004    0.09685002    0.06820000
opls_139-110    C    0.27805997    0.69945011    0.15724990    0.16730000
opls_136-111    C    0.20632994    0.81798992    0.07138005    0.06990000
opls_145-112    C    0.42538992    0.51086990    0.15367972    -0.12280000
opls_145-113    C    0.53088013    0.51095004    0.15293988    -0.12760000
opls_145-114    C    0.03091996    0.01085009    0.15029014    -0.12280000
opls_145-115    C    0.92545986    0.01085987    0.14942972    -0.12600000
opls_142-116    C    0.33091003    0.60610002    0.59018988    0.09080000
opls_700-117    C    0.35699005    0.63791992    0.59791002    0.07760000
opls_145-118    C    0.40088002    0.64415006    0.55767011    -0.13150000
opls_145-119    C    0.42941012    0.67297010    0.57218993    -0.06820000
opls_700-120    C    0.41386005    0.69475001    0.62726981    0.11710000
opls_145-121    C    0.36922999    0.68891999    0.66615010    -0.09600000
opls_145-122    C    0.34095006    0.66032000    0.65168978    -0.11450000
opls_700-123    C    0.44207013    0.72534991    0.64043000    0.04050000
opls_142-124    C    0.10702029    0.40488997    0.69296968    0.09000000
opls_700-125    C    0.08070015    0.37319006    0.68492991    0.07760000
opls_145-126    C    0.03688997    0.36697008    0.72535991    -0.13160000
opls_145-127    C    0.00807015    0.33833006    0.71056997    -0.06840000
opls_700-128    C    0.02320016    0.31671001    0.65501985    0.11710000
opls_145-129    C    0.06774019    0.32252008    0.61589997    -0.09590000
opls_145-130    C    0.09632008    0.35095004    0.63062989    -0.12890000
opls_700-131    C    0.99483009    0.28616992    0.64194970    0.04060000
opls_136-132    C    0.12856994    0.47123988    0.63133972    0.06990000
opls_136-133    C    0.20973023    0.44031004    0.58689983    0.06820000
opls_139-134    C    0.16935020    0.44379004    0.64720967    0.16740000
opls_136-135    C    0.24475021    0.56264994    0.56296010    0.06990000
opls_136-136    C    0.30943017    0.53975001    0.65199994    0.06990000
opls_136-137    C    0.22828026    0.57067985    0.69644982    0.06820000
opls_139-138    C    0.26865014    0.56719010    0.63611998    0.16730000
opls_136-139    C    0.19322997    0.44832995    0.72039009    0.06990000
opls_142-140    C    0.60899002    0.90504996    0.59011985    0.09150000
opls_700-141    C    0.58235016    0.87333986    0.59814961    0.07760000
opls_145-142    C    0.54044024    0.86700002    0.55762009    -0.12210000
opls_145-143    C    0.51103991    0.83833000    0.57238002    -0.06830000
opls_700-144    C    0.52370022    0.81680011    0.62798964    0.11640000
opls_145-145    C    0.56637006    0.82272991    0.66725959    -0.09600000
opls_145-146    C    0.59552017    0.85118997    0.65255969    -0.12210000
opls_700-147    C    0.49483006    0.78622995    0.64107980    0.04050000
opls_142-148    C    0.82856028    0.10621991    0.69409971    0.09150000
opls_700-149    C    0.85495014    0.13803009    0.68617000    0.07760000
opls_145-150    C    0.89704017    0.14439988    0.72633987    -0.12660000
opls_145-151    C    0.92623026    0.17316007    0.71147989    -0.09740000
opls_700-152    C    0.91315999    0.19474996    0.65615989    0.11640000
opls_145-153    C    0.87027999    0.18881003    0.61733963    -0.09600000
opls_145-154    C    0.84134995    0.16026005    0.63214011    -0.12770000
opls_700-155    C    0.94195017    0.22532002    0.64267006    0.04060000
opls_136-156    C    0.80988992    0.03969005    0.63244974    0.06990000
opls_136-157    C    0.73105997    0.07070009    0.58726001    0.06820000
opls_139-158    C    0.76844013    0.06721989    0.64794003    0.16730000
opls_136-159    C    0.69667002    0.94840992    0.56323971    0.06990000
opls_136-160    C    0.62775028    0.97153999    0.65167978    0.06990000
opls_136-161    C    0.70658023    0.94051995    0.69687003    0.06820000
opls_139-162    C    0.66918999    0.94399991    0.63620001    0.16730000
opls_136-163    C    0.74095011    0.06280986    0.72088981    0.07000000
opls_142-164    C    0.60610005    0.60611001    0.69482007    0.09030000
opls_700-165    C    0.58001017    0.63793000    0.68756964    0.07760000
opls_145-166    C    0.53609028    0.64402989    0.72785957    -0.12770000
opls_145-167    C    0.50752023    0.67284995    0.71374996    -0.06820000
opls_700-168    C    0.52306027    0.69480009    0.65902973    0.11640000
opls_145-169    C    0.56773009    0.68911006    0.62009994    -0.09600000
opls_145-170    C    0.59604012    0.66048996    0.63415005    -0.13150000
opls_700-171    C    0.49476000    0.72537994    0.64618969    0.04050000
opls_142-172    C    0.82984027    0.40515011    0.58968964    0.09030000
opls_700-173    C    0.85620009    0.37343989    0.59698008    0.07760000
opls_145-174    C    0.89986991    0.36736004    0.55613988    -0.12840000
opls_145-175    C    0.92867008    0.33862006    0.57003991    -0.06820000
opls_700-176    C    0.91364025    0.31674998    0.62512980    0.11640000
opls_145-177    C    0.86926027    0.32243005    0.66470991    -0.09600000
opls_145-178    C    0.84070026    0.35097006    0.65085990    -0.12840000
opls_700-179    C    0.94205008    0.28615997    0.63747960    0.04050000
opls_136-180    C    0.80823025    0.47123001    0.65259971    0.06990000
opls_136-181    C    0.72688998    0.44022000    0.69601961    0.06820000
opls_139-182    C    0.76746997    0.44385998    0.63597991    0.16740000
opls_136-183    C    0.69206022    0.56252008    0.72174971    0.06990000
opls_136-184    C    0.62761993    0.53997011    0.63191000    0.06990000
opls_136-185    C    0.70896004    0.57096010    0.58848009    0.06820000
opls_139-186    C    0.66840013    0.56731987    0.64851979    0.16730000
opls_136-187    C    0.74380003    0.44865002    0.56274999    0.06990000
opls_142-188    C    0.32759012    0.90513998    0.69479005    0.09080000
opls_700-189    C    0.35423019    0.87339995    0.68721999    0.07760000
opls_145-190    C    0.39614005    0.86725990    0.72786958    -0.13150000
opls_145-191    C    0.42555998    0.83855003    0.71354986    -0.06840000
opls_700-192    C    0.41291025    0.81676995    0.65825988    0.11710000
opls_145-193    C    0.37024025    0.82252005    0.61887987    -0.09600000
opls_145-194    C    0.34107015    0.85102987    0.63314008    -0.12890000
opls_700-195    C    0.44185029    0.78619989    0.64552989    0.04060000
opls_142-196    C    0.10823995    0.10588995    0.58889977    0.09080000
opls_700-197    C    0.08180014    0.13771991    0.59608964    0.07760000
opls_145-198    C    0.03986998    0.14386001    0.55550009    -0.10200000
opls_145-199    C    0.01071009    0.17274008    0.56945963    -0.06820000
opls_700-200    C    0.02369022    0.19468005    0.62430992    0.11710000
opls_145-201    C    0.06639006    0.18892988    0.66360989    -0.09280000
opls_145-202    C    0.09528004    0.16026986    0.64970986    -0.12890000
opls_700-203    C    0.99489001    0.22531005    0.63696987    0.04060000
opls_136-204    C    0.12694006    0.03972999    0.65167978    0.06990000
opls_136-205    C    0.20598011    0.07086992    0.69592009    0.06820000
opls_139-206    C    0.16840022    0.06717011    0.63552968    0.16730000
opls_136-207    C    0.24013002    0.94863005    0.72141007    0.06990000
opls_136-208    C    0.30883998    0.97133986    0.63222963    0.06990000
opls_136-209    C    0.22979029    0.94020993    0.58797984    0.06820000
opls_139-210    C    0.26738011    0.94389998    0.64834971    0.16730000
opls_136-211    C    0.19566993    0.06244006    0.56248986    0.06990000
opls_145-212    C    0.41565017    0.75576002    0.64267006    -0.12270000
opls_145-213    C    0.52110003    0.75583009    0.64394964    -0.12760000
opls_145-214    C    0.02118021    0.25573988    0.63917991    -0.12760000
opls_145-215    C    0.91567997    0.25573009    0.64032995    -0.12280000
F2_Mo4f2-216    Mo    0.15403987    0.28705004    0.04950976    1.40370000
F2_Mo4f2-217    Mo    0.13431999    0.29634010    0.20306994    1.40370000
F2_Mo4f2-218    Mo    0.24728027    0.25180000    0.99789001    1.40370000
F2_Mo4f2-219    Mo    0.30156022    0.23503003    0.25304993    1.40370000
F2_Mo4f2-220    Mo    0.32126002    0.22573998    0.09948975    1.40370000
F2_Mo4f2-221    Mo    0.20830997    0.27028007    0.30466968    1.40370000
F2_Mo4f2-222    Mo    0.80627997    0.73484003    0.05040020    1.40370000
F2_Mo4f2-223    Mo    0.81836997    0.72570996    0.20410993    1.40370000
F2_Mo4f2-224    Mo    0.71574035    0.77021003    0.99793003    1.40370000
F2_Mo4f2-225    Mo    0.64897992    0.78741010    0.25253020    1.40370000
F2_Mo4f2-226    Mo    0.63687993    0.79653991    0.09880994    1.40370000
F2_Mo4f2-227    Mo    0.73952015    0.75204009    0.30498984    1.40370000
F2_Mo4f2-228    Mo    0.80208012    0.28669992    0.25412994    1.40370000
F2_Mo4f2-229    Mo    0.82230003    0.29644008    0.10081988    1.40370000
F2_Mo4f2-230    Mo    0.70859987    0.25139000    0.30458016    1.40370000
F2_Mo4f2-231    Mo    0.65514008    0.23544994    0.04877992    1.40370000
F2_Mo4f2-232    Mo    0.63491018    0.22571002    0.20207998    1.40370000
F2_Mo4f2-233    Mo    0.74861033    0.27076985    0.99831970    1.40370000
F2_Mo4f2-234    Mo    0.15016988    0.73526002    0.25273978    1.40370000
F2_Mo4f2-235    Mo    0.13754991    0.72554003    0.09925016    1.40370000
F2_Mo4f2-236    Mo    0.24099012    0.77074988    0.30413994    1.40370000
F2_Mo4f2-237    Mo    0.30696002    0.78689006    0.04891999    1.40370000
F2_Mo4f2-238    Mo    0.31959021    0.79661005    0.20241014    1.40370000
F2_Mo4f2-239    Mo    0.21615001    0.75139994    0.99751983    1.40370000
F2_Mo4f2-240    Mo    0.14524000    0.53151010    0.53991975    1.40370000
F2_Mo4f2-241    Mo    0.12553012    0.54079990    0.69348994    1.40370000
F2_Mo4f2-242    Mo    0.23848025    0.49626004    0.48829000    1.40370000
F2_Mo4f2-243    Mo    0.29276019    0.47948007    0.74344992    1.40370000
F2_Mo4f2-244    Mo    0.31247007    0.47020001    0.58987973    1.40370000
F2_Mo4f2-245    Mo    0.19951032    0.51472986    0.79506967    1.40370000
F2_Mo4f2-246    Mo    0.79746013    0.97932998    0.54098975    1.40370000
F2_Mo4f2-247    Mo    0.80956012    0.97019991    0.69471001    1.40370000
F2_Mo4f2-248    Mo    0.70692997    0.01468998    0.48852011    1.40370000
F2_Mo4f2-249    Mo    0.64017031    0.03191005    0.74311975    1.40370000
F2_Mo4f2-250    Mo    0.62808015    0.04102986    0.58940002    1.40370000
F2_Mo4f2-251    Mo    0.73070007    0.99653005    0.79558992    1.40370000
F2_Mo4f2-252    Mo    0.79140008    0.53121004    0.74491959    1.40370000
F2_Mo4f2-253    Mo    0.81163019    0.54095994    0.59161006    1.40370000
F2_Mo4f2-254    Mo    0.69791997    0.49589987    0.79537982    1.40380000
F2_Mo4f2-255    Mo    0.64445002    0.47997005    0.53956010    1.40370000
F2_Mo4f2-256    Mo    0.62423013    0.47022989    0.69286963    1.40370000
F2_Mo4f2-257    Mo    0.73793027    0.51527997    0.48910988    1.40370000
F2_Mo4f2-258    Mo    0.13950010    0.97972992    0.74387960    1.40370000
F2_Mo4f2-259    Mo    0.12687012    0.97000992    0.59037998    1.40370000
F2_Mo4f2-260    Mo    0.23031019    0.01522002    0.79525976    1.40380000
F2_Mo4f2-261    Mo    0.29628993    0.03134994    0.54003981    1.40370000
F2_Mo4f2-262    Mo    0.30892013    0.04107993    0.69352996    1.40380000
F2_Mo4f2-263    Mo    0.20547022    0.99586009    0.48864965    1.40370000
opls_272-264    O    0.12063002    0.33230991    0.26014976    -0.46750000
MOF2_O_3-265    O    0.15815007    0.25933993    0.13743010    -0.43770000
opls_272-266    O    0.08719003    0.28134998    0.03706992    -0.46750000
opls_180-267    O    0.13860995    0.32585004    0.11644972    -0.47290000
opls_272-268    O    0.15734011    0.31502997    0.97402978    -0.46750000
opls_272-269    O    0.06748017    0.29055991    0.19079018    -0.46750000
MOF2_O_3-270    O    0.22763988    0.28735998    0.06902994    -0.43770000
opls_180-271    O    0.17240020    0.24723992    0.98724000    -0.47290000
opls_272-272    O    0.25041017    0.27981004    0.92253957    -0.46750000
opls_272-273    O    0.26098019    0.21582000    0.94088970    -0.46750000
MOF2_O_3-274    O    0.24633998    0.22587993    0.08858014    -0.43770000
opls_180-275    O    0.32158002    0.25676011    0.01521016    -0.47290000
opls_272-276    O    0.33495014    0.18975991    0.04241993    -0.46750000
MOF2_O_3-277    O    0.29744016    0.26273989    0.16513012    -0.43770000
opls_272-278    O    0.36839991    0.24073008    0.26546976    -0.46750000
opls_180-279    O    0.31697006    0.19623004    0.18610997    -0.47290000
opls_272-280    O    0.29825013    0.20706010    0.32852990    -0.46750000
opls_272-281    O    0.38809983    0.23150990    0.11177003    -0.46750000
MOF2_O_3-282    O    0.22796021    0.23473010    0.23352975    -0.43770000
opls_180-283    O    0.28319005    0.27483990    0.31531968    -0.47290000
opls_272-284    O    0.20518008    0.24227004    0.38002012    -0.46750000
opls_272-285    O    0.19459013    0.30626008    0.36167999    -0.46750000
MOF2_O_3-286    O    0.20924987    0.29619989    0.21398007    -0.43770000
opls_180-287    O    0.13401021    0.26530996    0.28735006    -0.47290000
opls_272-288    O    0.82909986    0.68977991    0.26134983    -0.46750000
MOF2_O_3-289    O    0.79794986    0.76267008    0.13820996    -0.43770000
opls_272-290    O    0.87374997    0.74037995    0.03854012    -0.46750000
opls_180-291    O    0.81822001    0.69608993    0.11752973    -0.47290000
opls_272-292    O    0.80655031    0.70676000    0.97496972    -0.46750000
opls_272-293    O    0.88583014    0.73133000    0.19239992    -0.46750000
MOF2_O_3-294    O    0.73173006    0.73470993    0.06928006    -0.43770000
opls_180-295    O    0.79116005    0.77459998    0.98790981    -0.47290000
opls_272-296    O    0.71621025    0.74210985    0.92261961    -0.46750000
opls_272-297    O    0.70501025    0.80614988    0.94074963    -0.46750000
MOF2_O_3-298    O    0.71233005    0.79623991    0.08855012    -0.43760000
opls_180-299    O    0.64059018    0.76541011    0.01460986    -0.47290000
opls_272-300    O    0.62615989    0.83246996    0.04157004    -0.46750000
MOF2_O_3-301    O    0.65730020    0.75958005    0.16471991    -0.43770000
opls_272-302    O    0.58151008    0.78186994    0.26439976    -0.46750000
opls_180-303    O    0.63703005    0.82615995    0.18540015    -0.47290000
opls_272-304    O    0.64870998    0.81548988    0.32796015    -0.46750000
opls_272-305    O    0.56942999    0.79092012    0.11051994    -0.46740000
MOF2_O_3-306    O    0.72354007    0.78753994    0.23364981    -0.43760000
opls_180-307    O    0.66411008    0.74764990    0.31502006    -0.47290000
opls_272-308    O    0.73904989    0.78014002    0.38029973    -0.46750000
opls_272-309    O    0.75025012    0.71609998    0.36215970    -0.46750000
MOF2_O_3-310    O    0.74293008    0.72601996    0.21436974    -0.43770000
opls_180-311    O    0.81467010    0.75683002    0.28832001    -0.47290000
opls_272-312    O    0.83626993    0.33257007    0.04440987    -0.46750000
MOF2_O_3-313    O    0.79819009    0.25926988    0.16571988    -0.43770000
opls_272-314    O    0.86886000    0.28089001    0.26689994    -0.46750000
opls_180-315    O    0.81780021    0.32569003    0.18790981    -0.47280000
opls_272-316    O    0.79858015    0.31445011    0.33005013    -0.46750000
opls_272-317    O    0.88908004    0.29056005    0.11344981    -0.46750000
MOF2_O_3-318    O    0.72855989    0.28714010    0.23413004    -0.43770000
opls_180-319    O    0.78342008    0.24671992    0.31564985    -0.47290000
opls_272-320    O    0.70528013    0.27918008    0.38036976    -0.46750000
opls_272-321    O    0.69461988    0.21525998    0.36095015    -0.46750000
MOF2_O_3-322    O    0.70978012    0.22573997    0.21347983    -0.43770000
opls_180-323    O    0.63438015    0.25648007    0.28686982    -0.47290000
opls_272-324    O    0.62093989    0.18958004    0.25848999    -0.46750000
MOF2_O_3-325    O    0.65902996    0.26288997    0.13717997    -0.43770000
opls_272-326    O    0.58835013    0.24126011    0.03601993    -0.46750000
opls_180-327    O    0.63942000    0.19646009    0.11500005    -0.47290000
opls_272-328    O    0.65863020    0.20770000    0.97285973    -0.46750000
opls_272-329    O    0.56812993    0.23159006    0.18946005    -0.46750000
MOF2_O_3-330    O    0.72864993    0.23502001    0.06876981    -0.43760000
opls_180-331    O    0.67379027    0.27542994    0.98726001    -0.47290000
opls_272-332    O    0.75194009    0.24297004    0.92253957    -0.46750000
opls_272-333    O    0.76259032    0.30689987    0.94194970    -0.46750000
MOF2_O_3-334    O    0.74743008    0.29641988    0.08942003    -0.43770000
opls_180-335    O    0.82282982    0.26568005    0.01604004    -0.47290000
opls_272-336    O    0.12651986    0.68940004    0.04257001    -0.46750000
MOF2_O_3-337    O    0.15828010    0.76273988    0.16451982    -0.43770000
opls_272-338    O    0.08274992    0.74090989    0.26495003    -0.46750000
opls_180-339    O    0.13789999    0.69626012    0.18621002    -0.47290000
opls_272-340    O    0.15007020    0.70748010    0.32852990    -0.46750000
opls_272-341    O    0.07013994    0.73127003    0.11131981    -0.46750000
MOF2_O_3-342    O    0.22466018    0.73499997    0.23338020    -0.43770000
opls_180-343    O    0.16560995    0.77526005    0.31458985    -0.47290000
opls_272-344    O    0.24071005    0.74294011    0.37980001    -0.46750000
opls_272-345    O    0.25203002    0.80690008    0.36077007    -0.46750000
MOF2_O_3-346    O    0.24416992    0.79641996    0.21316020    -0.43770000
opls_180-347    O    0.31608010    0.76581995    0.28703990    -0.47290000
opls_272-348    O    0.33062990    0.83274004    0.25909977    -0.46740000
MOF2_O_3-349    O    0.29885018    0.75940994    0.13713995    -0.43770000
opls_272-350    O    0.37439006    0.78123992    0.03669974    -0.46750000
opls_180-351    O    0.31924014    0.82587996    0.11544975    -0.47290000
opls_272-352    O    0.30707031    0.81466997    0.97312986    -0.46750000
opls_272-353    O    0.38700019    0.79087004    0.19033996    -0.46750000
MOF2_O_3-354    O    0.23247009    0.78716011    0.06828010    -0.43770000
opls_180-355    O    0.29152033    0.74690003    0.98706992    -0.47290000
opls_272-356    O    0.21643008    0.77920997    0.92185976    -0.46750000
opls_272-357    O    0.20512012    0.71525001    0.94089971    -0.46750000
MOF2_O_3-358    O    0.21298004    0.72572012    0.08850010    -0.43770000
opls_180-359    O    0.14106003    0.75633012    0.01461986    -0.47290000
opls_272-360    O    0.11185023    0.57677996    0.75055975    -0.46750000
MOF2_O_3-361    O    0.14935019    0.50379998    0.62784009    -0.43770000
opls_272-362    O    0.07839008    0.52582005    0.52749992    -0.46750000
opls_180-363    O    0.12982008    0.57031010    0.60686971    -0.47290000
opls_272-364    O    0.14854001    0.55949003    0.46444978    -0.46750000
opls_272-365    O    0.05869015    0.53502996    0.68119965    -0.46750000
MOF2_O_3-366    O    0.21883016    0.53181003    0.55943993    -0.43770000
opls_180-367    O    0.16359994    0.49169997    0.47765000    -0.47290000
opls_272-368    O    0.24161013    0.52428008    0.41294009    -0.46750000
opls_272-369    O    0.25219009    0.46029002    0.43126968    -0.46750000
MOF2_O_3-370    O    0.23754018    0.47033997    0.57897012    -0.43770000
opls_180-371    O    0.31277999    0.50122990    0.50561014    -0.47290000
opls_272-372    O    0.32616004    0.43422994    0.53279991    -0.46750000
MOF2_O_3-373    O    0.28864014    0.50719993    0.65553010    -0.43770000
opls_272-374    O    0.35960004    0.48517987    0.75587975    -0.46750000
opls_180-375    O    0.30817995    0.44069006    0.67648995    -0.47290000
opls_272-376    O    0.28945033    0.45149988    0.81891989    -0.46750000
opls_272-377    O    0.37931004    0.47597995    0.60217002    -0.46750000
MOF2_O_3-378    O    0.21916018    0.47917988    0.72392973    -0.43760000
opls_180-379    O    0.27439002    0.51928994    0.80571967    -0.47290000
opls_272-380    O    0.19638006    0.48672008    0.87041958    -0.46750000
opls_272-381    O    0.18581018    0.55070987    0.85207998    -0.46750000
MOF2_O_3-382    O    0.20046023    0.54064994    0.70439007    -0.43770000
opls_180-383    O    0.12520995    0.50978001    0.77776005    -0.47290000
opls_272-384    O    0.82029016    0.93427987    0.75195992    -0.46750000
MOF2_O_3-385    O    0.78914023    0.00717003    0.62880004    -0.43770000
opls_272-386    O    0.86494020    0.98486989    0.52911967    -0.46750000
opls_180-387    O    0.80942000    0.94057989    0.60812981    -0.47290000
opls_272-388    O    0.79773992    0.95124995    0.46555980    -0.46750000
opls_272-389    O    0.87702014    0.97581995    0.68299001    -0.46750000
MOF2_O_3-390    O    0.72291022    0.97918988    0.55986962    -0.43770000
opls_180-391    O    0.78234005    0.01908992    0.47848988    -0.47290000
opls_272-392    O    0.70739002    0.98659005    0.41320969    -0.46750000
opls_272-393    O    0.69620002    0.05063009    0.43134972    -0.46750000
MOF2_O_3-394    O    0.70352005    0.04072011    0.57913968    -0.43770000
opls_180-395    O    0.63178018    0.00990006    0.50519994    -0.47290000
opls_272-396    O    0.61735995    0.07695990    0.53215012    -0.46750000
MOF2_O_3-397    O    0.64849019    0.00407000    0.65531000    -0.43770000
opls_272-398    O    0.57270015    0.02636987    0.75496983    -0.46750000
opls_180-399    O    0.62823013    0.07064988    0.67597970    -0.47290000
opls_272-400    O    0.63990021    0.05998007    0.81853970    -0.46750000
opls_272-401    O    0.56061998    0.03542007    0.60111002    -0.46750000
MOF2_O_3-402    O    0.71472021    0.03202989    0.72423989    -0.43770000
opls_180-403    O    0.65529023    0.99213985    0.80560962    -0.47290000
opls_272-404    O    0.73024026    0.02463997    0.87088981    -0.46750000
opls_272-405    O    0.74144004    0.96059994    0.85276979    -0.46750000
MOF2_O_3-406    O    0.73412023    0.97050992    0.70496983    -0.43770000
opls_180-407    O    0.80586010    0.00132997    0.77890957    -0.47290000
opls_272-408    O    0.82559025    0.57708993    0.53520005    -0.46750000
MOF2_O_3-409    O    0.78750018    0.50378000    0.65651006    -0.43770000
opls_272-410    O    0.85818003    0.52540985    0.75766958    -0.46750000
opls_180-411    O    0.80711030    0.57020989    0.67869999    -0.47280000
opls_272-412    O    0.78789995    0.55895997    0.82082978    -0.46750000
opls_272-413    O    0.87839998    0.53507991    0.60423999    -0.46750000
MOF2_O_3-414    O    0.71788000    0.53163997    0.72492970    -0.43770000
opls_180-415    O    0.77274002    0.49124004    0.80644003    -0.47290000
opls_272-416    O    0.69460007    0.52368994    0.87115994    -0.46750000
opls_272-417    O    0.68394022    0.45977009    0.85173981    -0.46750000
MOF2_O_3-418    O    0.69910006    0.47025009    0.70427001    -0.43770000
opls_180-419    O    0.62370994    0.50098993    0.77766000    -0.47290000
opls_272-420    O    0.61026022    0.43409990    0.74927964    -0.46750000
MOF2_O_3-421    O    0.64834007    0.50741009    0.62796963    -0.43770000
opls_272-422    O    0.57767014    0.48577996    0.52679010    -0.46750000
opls_180-423    O    0.62873010    0.44097995    0.60578971    -0.47290000
opls_272-424    O    0.64794014    0.45223011    0.46363991    -0.46750000
opls_272-425    O    0.55745026    0.47611993    0.68024970    -0.46750000
MOF2_O_3-426    O    0.71797025    0.47952987    0.55955999    -0.43770000
opls_180-427    O    0.66311023    0.51995005    0.47804967    -0.47290000
opls_272-428    O    0.74125018    0.48749990    0.41332975    -0.46750000
opls_272-429    O    0.75191003    0.55142000    0.43274989    -0.46750000
MOF2_O_3-430    O    0.73675019    0.54093000    0.58021969    -0.43770000
opls_180-431    O    0.81215015    0.51018991    0.50682969    -0.47290000
opls_272-432    O    0.11583023    0.93386994    0.53369983    -0.46750000
MOF2_O_3-433    O    0.14761016    0.00721003    0.65564964    -0.43770000
opls_272-434    O    0.07208029    0.98538006    0.75609986    -0.46750000
opls_180-435    O    0.12721999    0.94073002    0.67734985    -0.47290000
opls_272-436    O    0.13940004    0.95195001    0.81966973    -0.46750000
opls_272-437    O    0.05945993    0.97574994    0.60245964    -0.46750000
MOF2_O_3-438    O    0.21399024    0.97944987    0.72451002    -0.43770000
opls_180-439    O    0.15494002    0.01971994    0.80571967    -0.47290000
opls_272-440    O    0.23004012    0.98741000    0.87092983    -0.46750000
opls_272-441    O    0.24135031    0.05136996    0.85187988    -0.46750000
MOF2_O_3-442    O    0.23348999    0.04089010    0.70428001    -0.43770000
opls_180-443    O    0.30541016    0.01028985    0.77816973    -0.47290000
opls_272-444    O    0.31995019    0.07721992    0.75020958    -0.46750000
MOF2_O_3-445    O    0.28818025    0.00387009    0.62826978    -0.43770000
opls_272-446    O    0.36372011    0.02570007    0.52783008    -0.46750000
opls_180-447    O    0.30856004    0.07035009    0.60656009    -0.47290000
opls_272-448    O    0.29638999    0.05911986    0.46424968    -0.46750000
opls_272-449    O    0.37632026    0.03533993    0.68145977    -0.46750000
MOF2_O_3-450    O    0.22180016    0.03162000    0.55940992    -0.43770000
opls_180-451    O    0.28085001    0.99134993    0.47819974    -0.47290000
opls_272-452    O    0.20574991    0.02366987    0.41299011    -0.46750000
opls_272-453    O    0.19443009    0.95970990    0.43203006    -0.46750000
MOF2_O_3-454    O    0.20229003    0.97019001    0.57962992    -0.43770000
opls_180-455    O    0.13038025    0.00080002    0.50574969    -0.47280000
F2_Mn6+3-456    Mn    0.22779000    0.26103991    0.15128011    1.51270000
F2_Mn6+3-457    Mn    0.72762987    0.76113006    0.15146020    1.51270000
F2_Mn6+3-458    Mn    0.72861002    0.26108005    0.15145019    1.51270000
F2_Mn6+3-459    Mn    0.22856988    0.76108004    0.15082988    1.51270000
F2_Mn6+3-460    Mn    0.21898997    0.50548995    0.64168009    1.51280000
F2_Mn6+3-461    Mn    0.71882025    0.00561001    0.64204975    1.51270000
F2_Mn6+3-462    Mn    0.71792012    0.50558991    0.64223984    1.51270000
F2_Mn6+3-463    Mn    0.21789009    0.00553993    0.64195971    1.51270000
opls_144-464    H    0.34993008    0.34259989    0.05625994    0.03160000
opls_146-465    H    0.42168011    0.38121994    0.02345002    0.05350000
opls_146-466    H    0.47455011    0.43403992    0.04965983    0.05350000
opls_146-467    H    0.36652004    0.46277993    0.22036007    0.05350000
opls_146-468    H    0.31394005    0.41014990    0.19408971    0.05350000
opls_144-469    H    0.10573010    0.17955005    0.24643982    0.03160000
opls_146-470    H    0.03414003    0.14082006    0.27962992    0.05350000
opls_146-471    H    0.98159995    0.08778002    0.25393984    0.05350000
opls_146-472    H    0.08990984    0.05889012    0.08367982    0.05350000
opls_146-473    H    0.14215008    0.11174997    0.10942993    0.05280000
opls_140-474    H    0.11959982    0.22047993    0.08858014    0.04870000
opls_140-475    H    0.10679004    0.22592007    0.18463977    0.04870000
opls_140-476    H    0.24521001    0.17385002    0.10889019    0.04870000
opls_140-477    H    0.19855992    0.18998000    0.04553990    0.04870000
opls_140-478    H    0.22615988    0.34021999    0.06331975    0.04870000
opls_140-479    H    0.28508987    0.31877003    0.03019020    0.04870000
opls_140-480    H    0.34904986    0.29592005    0.11827009    0.04870000
opls_140-481    H    0.33568019    0.30184997    0.21408012    0.04870000
opls_140-482    H    0.25667005    0.33211004    0.25728992    0.04870000
opls_140-483    H    0.21054017    0.34825994    0.19322981    0.04870000
opls_140-484    H    0.22946014    0.18188007    0.23922993    0.04870000
opls_140-485    H    0.17085990    0.20356996    0.27286974    0.04870000
opls_144-486    H    0.60973000    0.67953989    0.05566017    0.03160000
opls_146-487    H    0.53957010    0.64061009    0.02272019    0.05280000
opls_146-488    H    0.48601009    0.58757000    0.04884996    0.05350000
opls_146-489    H    0.58672992    0.55927011    0.21937011    0.05280000
opls_146-490    H    0.63999009    0.61210991    0.19319979    0.05350000
opls_144-491    H    0.84543991    0.84272004    0.24732973    0.03160000
opls_146-492    H    0.91575019    0.88146005    0.28021969    0.05280000
opls_146-493    H    0.96980994    0.93422994    0.25384980    0.05350000
opls_146-494    H    0.86967988    0.96260007    0.08270987    0.05280000
opls_146-495    H    0.81591013    0.91000996    0.10911978    0.05350000
opls_140-496    H    0.83905987    0.80140004    0.08961012    0.04870000
opls_140-497    H    0.84712002    0.79605999    0.18575980    0.04870000
opls_140-498    H    0.71266015    0.84828990    0.10875012    0.04870000
opls_140-499    H    0.76233987    0.83199000    0.04584005    0.04870000
opls_140-500    H    0.73324014    0.68185001    0.06363991    0.04880000
opls_140-501    H    0.67604985    0.70339012    0.03000011    0.04870000
opls_140-502    H    0.60787007    0.72642987    0.11746022    0.04870000
opls_140-503    H    0.61648996    0.72057989    0.21337978    0.04870000
opls_140-504    H    0.69320990    0.69026007    0.25731994    0.04870000
opls_140-505    H    0.74243000    0.67393010    0.19373006    0.04870000
opls_140-506    H    0.72203006    0.84041011    0.23926995    0.04870000
opls_140-507    H    0.77886996    0.81862988    0.27337999    0.04870000
opls_144-508    H    0.60655006    0.34232005    0.24734974    0.03160000
opls_146-509    H    0.53500017    0.38079995    0.28130970    0.05280000
opls_146-510    H    0.48209010    0.43371012    0.25647004    0.05350000
opls_146-511    H    0.58977019    0.46316998    0.08591988    0.05280000
opls_146-512    H    0.64239018    0.41041988    0.11084010    0.05350000
opls_144-513    H    0.85078008    0.17984992    0.05569018    0.03160000
opls_146-514    H    0.92227008    0.14121012    0.02184976    0.05350000
opls_146-515    H    0.97478982    0.08809990    0.04662991    0.05350000
opls_146-516    H    0.86651996    0.05871999    0.21650975    0.05280000
opls_146-517    H    0.81430990    0.11165989    0.19167009    0.05350000
opls_140-518    H    0.83647990    0.22023008    0.21421019    0.04870000
opls_140-519    H    0.84963002    0.22596008    0.11831011    0.04870000
opls_140-520    H    0.71087013    0.17375995    0.19233989    0.04870000
opls_140-521    H    0.75734015    0.18966993    0.25624993    0.04870000
opls_140-522    H    0.73016008    0.33997003    0.24069013    0.04870000
opls_140-523    H    0.67108993    0.31847994    0.27314987    0.04870000
opls_140-524    H    0.60733006    0.29596000    0.18426011    0.04870000
opls_140-525    H    0.62103983    0.30218997    0.08862016    0.04870000
opls_140-526    H    0.70019010    0.33249996    0.04639980    0.04870000
opls_140-527    H    0.74615989    0.34843001    0.11099017    0.04870000
opls_140-528    H    0.72705012    0.18218007    0.06220972    0.04870000
opls_140-529    H    0.78580007    0.20393001    0.02926974    0.04870000
opls_144-530    H    0.34638998    0.67996998    0.24725970    0.03160000
opls_146-531    H    0.41633009    0.64129995    0.28130970    0.05350000
opls_146-532    H    0.46991005    0.58813002    0.25666014    0.05350000
opls_146-533    H    0.36962015    0.55877999    0.08624003    0.05350000
opls_146-534    H    0.31634019    0.61176997    0.11094015    0.05350000
opls_144-535    H    0.11072016    0.84229990    0.05447011    0.03160000
opls_146-536    H    0.04055004    0.88090009    0.02090982    0.05350000
opls_146-537    H    0.98656002    0.93379996    0.04638979    0.05350000
opls_146-538    H    0.08660990    0.96285988    0.21729013    0.05350000
opls_146-539    H    0.14029991    0.91014997    0.19176013    0.05280000
opls_140-540    H    0.11744004    0.80168994    0.21284004    0.04870000
opls_140-541    H    0.10903984    0.79597010    0.11681990    0.04870000
opls_140-542    H    0.24391020    0.84839988    0.19225985    0.04870000
opls_140-543    H    0.19436985    0.83238997    0.25569018    0.04870000
opls_140-544    H    0.22299996    0.68215999    0.23973018    0.04870000
opls_140-545    H    0.28036018    0.70378010    0.27274020    0.04870000
opls_140-546    H    0.34835995    0.72641997    0.18452971    0.04870000
opls_140-547    H    0.33940007    0.72019009    0.08877023    0.04870000
opls_140-548    H    0.26248001    0.68974992    0.04574000    0.04870000
opls_140-549    H    0.21340998    0.67371005    0.10983013    0.04870000
opls_140-550    H    0.23410985    0.84001009    0.06193011    0.04870000
opls_140-551    H    0.17710020    0.81814010    0.02845987    0.04870000
opls_146-552    H    0.38220010    0.51067987    0.15394985    0.05350000
opls_146-553    H    0.57407018    0.51115006    0.15265974    0.05350000
opls_146-554    H    0.07409008    0.01101988    0.15063979    0.05350000
opls_146-555    H    0.88228996    0.01102008    0.14907007    0.05350000
opls_144-556    H    0.34115005    0.58697990    0.54662991    0.03160000
opls_146-557    H    0.41281006    0.62571005    0.51362990    0.05350000
opls_146-558    H    0.46526000    0.67878988    0.53937000    0.05350000
opls_146-559    H    0.35662006    0.70771992    0.70919981    0.05350000
opls_146-560    H    0.30449019    0.65483005    0.68340969    0.05350000
opls_144-561    H    0.09693999    0.42392003    0.73676977    0.03160000
opls_146-562    H    0.02526013    0.38528988    0.76975978    0.05350000
opls_146-563    H    0.97229028    0.33251991    0.74355997    0.05350000
opls_146-564    H    0.08000999    0.30385005    0.57243004    0.05350000
opls_146-565    H    0.13269000    0.35644007    0.59869988    0.05350000
opls_140-566    H    0.11080025    0.46494996    0.57896012    0.04870000
opls_140-567    H    0.09799993    0.47037009    0.67501975    0.04870000
opls_140-568    H    0.23643015    0.41831005    0.59926964    0.04870000
opls_140-569    H    0.18978996    0.43444001    0.53589987    0.04870000
opls_140-570    H    0.21735015    0.58466004    0.55372974    0.04870000
opls_140-571    H    0.27627023    0.56321005    0.52056965    0.04870000
opls_140-572    H    0.34025029    0.54037007    0.60865007    0.04870000
opls_140-573    H    0.32689008    0.54631000    0.70446010    0.04870000
opls_140-574    H    0.24791002    0.57656008    0.74767990    0.04870000
opls_140-575    H    0.20176999    0.59272000    0.68364981    0.04870000
opls_140-576    H    0.22063003    0.42630985    0.72961992    0.04870000
opls_140-577    H    0.16203025    0.44799998    0.76323971    0.04870000
opls_144-578    H    0.60097993    0.92403008    0.54622971    0.03160000
opls_146-579    H    0.53079993    0.88524989    0.51313966    0.05280000
opls_146-580    H    0.47680015    0.83243010    0.53931998    0.05350000
opls_146-581    H    0.57668002    0.80415002    0.71082009    0.05280000
opls_146-582    H    0.63039018    0.85678003    0.68459975    0.05280000
opls_144-583    H    0.83669997    0.08720994    0.73786979    0.03160000
opls_146-584    H    0.90700008    0.12611007    0.77058966    0.05280000
opls_146-585    H    0.96062021    0.17909997    0.74422978    0.05280000
opls_146-586    H    0.85963012    0.20745990    0.57406980    0.05280000
opls_146-587    H    0.80631022    0.15467004    0.60046971    0.05350000
opls_140-588    H    0.83025019    0.04590000    0.58021969    0.04870000
opls_140-589    H    0.83831009    0.04054997    0.67637989    0.04870000
opls_140-590    H    0.70386000    0.09278011    0.59933967    0.04870000
opls_140-591    H    0.75355010    0.07646996    0.53644013    0.04870000
opls_140-592    H    0.72441014    0.92631998    0.55426000    0.04870000
opls_140-593    H    0.66722023    0.94787010    0.52061967    0.04870000
opls_140-594    H    0.59906015    0.97092010    0.60807979    0.04870000
opls_140-595    H    0.60769026    0.96508986    0.70399987    0.04870000
opls_140-596    H    0.68441020    0.93474004    0.74794003    0.04870000
opls_140-597    H    0.73363016    0.91841007    0.68433962    0.04870000
opls_140-598    H    0.71320998    0.08489006    0.72987004    0.04870000
opls_140-599    H    0.77005025    0.06311009    0.76398007    0.04870000
opls_144-600    H    0.59576999    0.58685009    0.73803987    0.03160000
opls_146-601    H    0.52415028    0.62544992    0.77161964    0.05280000
opls_146-602    H    0.47165005    0.67854996    0.74662991    0.05350000
opls_146-603    H    0.58033006    0.70803986    0.57733984    0.05280000
opls_146-604    H    0.63253029    0.65511987    0.60238012    0.05350000
opls_144-605    H    0.83999009    0.42437992    0.54634977    0.03160000
opls_146-606    H    0.91141019    0.38588003    0.51209967    0.05280000
opls_146-607    H    0.96434006    0.33294992    0.53669974    0.05350000
opls_146-608    H    0.85709005    0.30358004    0.70782966    0.05280000
opls_146-609    H    0.80445023    0.35635008    0.68315008    0.05350000
opls_140-610    H    0.82579016    0.46474995    0.70500985    0.04870000
opls_140-611    H    0.83895012    0.47047995    0.60910977    0.04870000
opls_140-612    H    0.70019007    0.41827007    0.68313007    0.04870000
opls_140-613    H    0.74666011    0.43418005    0.74703959    0.04870000
opls_140-614    H    0.71949019    0.58447991    0.73149979    0.04870000
opls_140-615    H    0.66041018    0.56298007    0.76396006    0.04870000
opls_140-616    H    0.59666017    0.54047988    0.67506977    0.04870000
opls_140-617    H    0.61036024    0.54671011    0.57943983    0.04870000
opls_140-618    H    0.68951012    0.57701011    0.53721999    0.04870000
opls_140-619    H    0.73547999    0.59293988    0.60178983    0.04870000
opls_140-620    H    0.71637022    0.42669994    0.55300991    0.04870000
opls_140-621    H    0.77511016    0.44843988    0.52005992    0.04870000
opls_144-622    H    0.33567995    0.92429986    0.73837004    0.03160000
opls_146-623    H    0.40575995    0.88570006    0.77207987    0.05350000
opls_146-624    H    0.45979028    0.83281002    0.74670995    0.05350000
opls_146-625    H    0.35993992    0.80373990    0.57558002    0.05350000
opls_146-626    H    0.30621997    0.85644999    0.60100997    0.05350000
opls_144-627    H    0.10003014    0.08663001    0.54554990    0.03160000
opls_146-628    H    0.02999997    0.12528989    0.51162996    0.05350000
opls_146-629    H    0.97645024    0.17846988    0.53635009    0.05350000
opls_146-630    H    0.07694026    0.20783996    0.70653007    0.05350000
opls_146-631    H    0.13018014    0.15483993    0.68175992    0.05280000
opls_140-632    H    0.10677018    0.04616008    0.70394985    0.04870000
opls_140-633    H    0.09836029    0.04042998    0.60793972    0.04870000
opls_140-634    H    0.23322026    0.09287001    0.68336967    0.04870000
opls_140-635    H    0.18367999    0.07686008    0.74677999    0.04870000
opls_140-636    H    0.21234026    0.92660988    0.73086000    0.04870000
opls_140-637    H    0.26972024    0.94822998    0.76385001    0.04870000
opls_140-638    H    0.33768000    0.97087986    0.67565006    0.04870000
opls_140-639    H    0.32871998    0.96465997    0.57988005    0.04870000
opls_140-640    H    0.25177015    0.93421006    0.53685981    0.04870000
opls_140-641    H    0.20271027    0.91816995    0.60096995    0.04870000
opls_140-642    H    0.22346007    0.08444997    0.55303993    0.04870000
opls_140-643    H    0.16645010    0.06257996    0.51954967    0.04870000
opls_146-644    H    0.37249019    0.75556009    0.64213980    0.05350000
opls_146-645    H    0.56426994    0.75603001    0.64445989    0.05350000
opls_146-646    H    0.06437008    0.25556997    0.63868967    0.05350000
opls_146-647    H    0.87249010    0.25555995    0.64076964    0.05350000
