#======================================================================
# Crystal Data Generated By AuToFF
#----------------------------------------------------------------------

data_AuToFF_phase_1

_cell_length_a                         26.6896
_cell_length_b                         26.6896
_cell_length_c                         24.9789
_cell_angle_alpha                      90.00
_cell_angle_beta                       90.00
_cell_angle_gamma                      90.00
_symmetry_space_group_name_H-M_alt     'P 1'
_symmetry_space_group_IT_number        1

loop_
_space_group_symop_operation_xyz
   'x, y, z'

loop_
   _atom_site_label
   _atom_site_type_symbol
   _atom_site_fract_x
   _atom_site_fract_y
   _atom_site_fract_z
   _atom_site_charge
opls_145-0    C    0.00000000    0.09472004    0.47351004    -0.17490000
opls_166-1    C    0.00000000    0.12971007    0.43087005    0.28230000
opls_700-2    C    0.00000000    0.11205001    0.37729003    -0.04900000
opls_145-3    C    0.00000000    0.06023994    0.36657019    -0.07940000
opls_700-4    C    0.00000000    0.02711019    0.40950002    0.03480000
opls_700-5    C    0.00000000    0.04363984    0.46182018    0.05000000
opls_142-6    C    0.00000000    0.14801983    0.33268999    0.01490000
opls_145-7    C    0.00000000    0.21870991    0.24543995    -0.10830000
opls_145-8    C    0.00000000    0.25017985    0.20090997    -0.07270000
opls_700-9    C    0.00000000    0.23164004    0.14819988    0.02570000
opls_700-10    C    0.00000000    0.17833988    0.14200986    0.14800000
opls_145-11    C    0.00000000    0.14711985    0.18699983    -0.16230000
opls_145-12    C    0.00000000    0.16676009    0.23862980    0.23970000
opls_181-13    C    0.00000000    0.19702993    0.49454019    -0.16770000
opls_148-14    C    0.00000000    0.15203000    0.08933019    -0.35250000
opls_701-15    C    0.00000000    0.00000000    0.50000000    -0.00610000
opls_145-16    C    0.50000000    0.40527996    0.97351004    -0.17490000
opls_166-17    C    0.50000000    0.37028993    0.93087005    0.28230000
opls_700-18    C    0.50000000    0.38794999    0.87729003    -0.04900000
opls_145-19    C    0.50000000    0.43976006    0.86657019    -0.07940000
opls_700-20    C    0.50000000    0.47288981    0.90950002    0.03480000
opls_700-21    C    0.50000000    0.45636016    0.96182018    0.05000000
opls_142-22    C    0.50000000    0.35198017    0.83268999    0.01490000
opls_145-23    C    0.50000000    0.28129009    0.74543995    -0.10830000
opls_145-24    C    0.50000000    0.24982015    0.70090997    -0.07270000
opls_700-25    C    0.50000000    0.26835996    0.64819988    0.02570000
opls_700-26    C    0.50000000    0.32166012    0.64200986    0.14780000
opls_145-27    C    0.50000000    0.35288015    0.68699983    -0.16220000
opls_145-28    C    0.50000000    0.33323991    0.73862980    0.23970000
opls_181-29    C    0.50000000    0.30297007    0.99454019    -0.16770000
opls_148-30    C    0.50000000    0.34797000    0.58933019    -0.35240000
opls_701-31    C    0.50000000    0.50000000    0.00000000    -0.00610000
opls_145-32    C    0.90527996    0.50000000    0.72350984    -0.17490000
opls_166-33    C    0.87028993    0.50000000    0.68086985    0.28230000
opls_700-34    C    0.88794999    0.50000000    0.62728983    -0.04900000
opls_145-35    C    0.93976006    0.50000000    0.61656999    -0.07930000
opls_700-36    C    0.97288981    0.50000000    0.65949982    0.03480000
opls_700-37    C    0.95636016    0.50000000    0.71181998    0.05000000
opls_142-38    C    0.85198017    0.50000000    0.58269019    0.01490000
opls_145-39    C    0.78129009    0.50000000    0.49544015    -0.10830000
opls_145-40    C    0.74982015    0.50000000    0.45091017    -0.07270000
opls_700-41    C    0.76835996    0.50000000    0.39820008    0.02570000
opls_700-42    C    0.82166012    0.50000000    0.39201006    0.14780000
opls_145-43    C    0.85288015    0.50000000    0.43700003    -0.16230000
opls_145-44    C    0.83323991    0.50000000    0.48863000    0.23970000
opls_181-45    C    0.80297007    0.50000000    0.74453999    -0.16770000
opls_148-46    C    0.84797000    0.50000000    0.33932999    -0.35250000
opls_701-47    C    0.00000000    0.50000000    0.75000020    -0.00610000
opls_145-48    C    0.59472004    0.00000000    0.22350984    -0.17480000
opls_166-49    C    0.62971007    0.00000000    0.18086985    0.28230000
opls_700-50    C    0.61205001    0.00000000    0.12728983    -0.04900000
opls_145-51    C    0.56023994    0.00000000    0.11656999    -0.07940000
opls_700-52    C    0.52711019    0.00000000    0.15949982    0.03480000
opls_700-53    C    0.54363984    0.00000000    0.21181998    0.05000000
opls_142-54    C    0.64801983    0.00000000    0.08269019    0.01500000
opls_145-55    C    0.71870991    0.00000000    0.99544015    -0.10830000
opls_145-56    C    0.75017985    0.00000000    0.95091017    -0.07270000
opls_700-57    C    0.73164004    0.00000000    0.89820008    0.02570000
opls_700-58    C    0.67833988    0.00000000    0.89201006    0.14780000
opls_145-59    C    0.64711985    0.00000000    0.93700003    -0.16230000
opls_145-60    C    0.66676009    0.00000000    0.98863000    0.23980000
opls_181-61    C    0.69702993    0.00000000    0.24453999    -0.16770000
opls_148-62    C    0.65203000    0.00000000    0.83932999    -0.35250000
opls_701-63    C    0.50000000    0.00000000    0.24999980    -0.00610000
opls_145-64    C    0.00000000    0.40527996    0.77649016    -0.17490000
opls_166-65    C    0.00000000    0.37028993    0.81913015    0.28230000
opls_700-66    C    0.00000000    0.38794999    0.87271017    -0.04900000
opls_145-67    C    0.00000000    0.43976006    0.88343001    -0.07940000
opls_700-68    C    0.00000000    0.47288981    0.84050018    0.03480000
opls_700-69    C    0.00000000    0.45636016    0.78818002    0.05000000
opls_142-70    C    0.00000000    0.35198017    0.91730981    0.01490000
opls_145-71    C    0.00000000    0.28129009    0.00455985    -0.10830000
opls_145-72    C    0.00000000    0.24982015    0.04908983    -0.07270000
opls_700-73    C    0.00000000    0.26835996    0.10179992    0.02570000
opls_700-74    C    0.00000000    0.32166012    0.10798994    0.14780000
opls_145-75    C    0.00000000    0.35288015    0.06299997    -0.16230000
opls_145-76    C    0.00000000    0.33323991    0.01137000    0.23970000
opls_181-77    C    0.00000000    0.30297007    0.75546001    -0.16770000
opls_148-78    C    0.00000000    0.34797000    0.16067001    -0.35250000
opls_145-79    C    0.50000000    0.09472004    0.27649016    -0.17490000
opls_166-80    C    0.50000000    0.12971007    0.31913015    0.28230000
opls_700-81    C    0.50000000    0.11205001    0.37271017    -0.04900000
opls_145-82    C    0.50000000    0.06023994    0.38343001    -0.07940000
opls_700-83    C    0.50000000    0.02711019    0.34050018    0.03480000
opls_700-84    C    0.50000000    0.04363984    0.28818002    0.05000000
opls_142-85    C    0.50000000    0.14801983    0.41730981    0.01490000
opls_145-86    C    0.50000000    0.21870991    0.50455985    -0.10830000
opls_145-87    C    0.50000000    0.25017985    0.54908983    -0.07270000
opls_700-88    C    0.50000000    0.23164004    0.60179992    0.02570000
opls_700-89    C    0.50000000    0.17833988    0.60798994    0.14790000
opls_145-90    C    0.50000000    0.14711985    0.56299997    -0.16230000
opls_145-91    C    0.50000000    0.16676009    0.51137000    0.23970000
opls_181-92    C    0.50000000    0.19702993    0.25546001    -0.16770000
opls_148-93    C    0.50000000    0.15203000    0.66067001    -0.35250000
opls_145-94    C    0.09472004    0.00000000    0.52648996    -0.17490000
opls_166-95    C    0.12971007    0.00000000    0.56912995    0.28230000
opls_700-96    C    0.11205001    0.00000000    0.62270997    -0.04900000
opls_145-97    C    0.06023994    0.00000000    0.63342981    -0.07940000
opls_700-98    C    0.02711019    0.00000000    0.59049998    0.03480000
opls_700-99    C    0.04363984    0.00000000    0.53817982    0.05000000
opls_142-100    C    0.14801983    0.00000000    0.66731001    0.01490000
opls_145-101    C    0.21870991    0.00000000    0.75456005    -0.10830000
opls_145-102    C    0.25017985    0.00000000    0.79909003    -0.07270000
opls_700-103    C    0.23164004    0.00000000    0.85180012    0.02570000
opls_700-104    C    0.17833988    0.00000000    0.85799014    0.14780000
opls_145-105    C    0.14711985    0.00000000    0.81300017    -0.16230000
opls_145-106    C    0.16676009    0.00000000    0.76137020    0.23970000
opls_181-107    C    0.19702993    0.00000000    0.50545981    -0.16770000
opls_148-108    C    0.15203000    0.00000000    0.91066981    -0.35240000
opls_145-109    C    0.40527996    0.50000000    0.02648996    -0.17490000
opls_166-110    C    0.37028993    0.50000000    0.06912995    0.28230000
opls_700-111    C    0.38794999    0.50000000    0.12270997    -0.04900000
opls_145-112    C    0.43976006    0.50000000    0.13342981    -0.07940000
opls_700-113    C    0.47288981    0.50000000    0.09049998    0.03480000
opls_700-114    C    0.45636016    0.50000000    0.03817982    0.05000000
opls_142-115    C    0.35198017    0.50000000    0.16731001    0.01490000
opls_145-116    C    0.28129009    0.50000000    0.25456005    -0.10830000
opls_145-117    C    0.24982015    0.50000000    0.29909003    -0.07270000
opls_700-118    C    0.26835996    0.50000000    0.35180012    0.02570000
opls_700-119    C    0.32166012    0.50000000    0.35799014    0.14780000
opls_145-120    C    0.35288015    0.50000000    0.31300017    -0.16230000
opls_145-121    C    0.33323991    0.50000000    0.26137020    0.23970000
opls_181-122    C    0.30297007    0.50000000    0.00545981    -0.16770000
opls_148-123    C    0.34797000    0.50000000    0.41066981    -0.35250000
opls_145-124    C    0.40527996    0.00000000    0.22350984    -0.17490000
opls_166-125    C    0.37028993    0.00000000    0.18086985    0.28240000
opls_700-126    C    0.38794999    0.00000000    0.12728983    -0.04900000
opls_145-127    C    0.43976006    0.00000000    0.11656999    -0.07940000
opls_700-128    C    0.47288981    0.00000000    0.15949982    0.03480000
opls_700-129    C    0.45636016    0.00000000    0.21181998    0.05000000
opls_142-130    C    0.35198017    0.00000000    0.08269019    0.01490000
opls_145-131    C    0.28129009    0.00000000    0.99544015    -0.10830000
opls_145-132    C    0.24982015    0.00000000    0.95091017    -0.07270000
opls_700-133    C    0.26835996    0.00000000    0.89820008    0.02570000
opls_700-134    C    0.32166012    0.00000000    0.89201006    0.14780000
opls_145-135    C    0.35288015    0.00000000    0.93700003    -0.16230000
opls_145-136    C    0.33323991    0.00000000    0.98863000    0.23970000
opls_181-137    C    0.30297007    0.00000000    0.24453999    -0.16770000
opls_148-138    C    0.34797000    0.00000000    0.83932999    -0.35250000
opls_145-139    C    0.09472004    0.50000000    0.72350984    -0.17490000
opls_166-140    C    0.12971007    0.50000000    0.68086985    0.28230000
opls_700-141    C    0.11205001    0.50000000    0.62728983    -0.04900000
opls_145-142    C    0.06023994    0.50000000    0.61656999    -0.07940000
opls_700-143    C    0.02711019    0.50000000    0.65949982    0.03480000
opls_700-144    C    0.04363984    0.50000000    0.71181998    0.05000000
opls_142-145    C    0.14801983    0.50000000    0.58269019    0.01490000
opls_145-146    C    0.21870991    0.50000000    0.49544015    -0.10820000
opls_145-147    C    0.25017985    0.50000000    0.45091017    -0.07270000
opls_700-148    C    0.23164004    0.50000000    0.39820008    0.02570000
opls_700-149    C    0.17833988    0.50000000    0.39201006    0.14790000
opls_145-150    C    0.14711985    0.50000000    0.43700003    -0.16230000
opls_145-151    C    0.16676009    0.50000000    0.48863000    0.23970000
opls_181-152    C    0.19702993    0.50000000    0.74453999    -0.16770000
opls_148-153    C    0.15203000    0.50000000    0.33932999    -0.35240000
opls_145-154    C    0.00000000    0.90527996    0.47351004    -0.17490000
opls_166-155    C    0.00000000    0.87028993    0.43087005    0.28230000
opls_700-156    C    0.00000000    0.88794999    0.37729003    -0.04900000
opls_145-157    C    0.00000000    0.93976006    0.36657019    -0.07940000
opls_700-158    C    0.00000000    0.97288981    0.40950002    0.03480000
opls_700-159    C    0.00000000    0.95636016    0.46182018    0.05000000
opls_142-160    C    0.00000000    0.85198017    0.33268999    0.01490000
opls_145-161    C    0.00000000    0.78129009    0.24543995    -0.10830000
opls_145-162    C    0.00000000    0.74982015    0.20090997    -0.07270000
opls_700-163    C    0.00000000    0.76835996    0.14819988    0.02570000
opls_700-164    C    0.00000000    0.82166012    0.14200986    0.14780000
opls_145-165    C    0.00000000    0.85288015    0.18699983    -0.16230000
opls_145-166    C    0.00000000    0.83323991    0.23862980    0.23970000
opls_181-167    C    0.00000000    0.80297007    0.49454019    -0.16760000
opls_148-168    C    0.00000000    0.84797000    0.08933019    -0.35250000
opls_145-169    C    0.50000000    0.59472004    0.97351004    -0.17480000
opls_166-170    C    0.50000000    0.62971007    0.93087005    0.28230000
opls_700-171    C    0.50000000    0.61205001    0.87729003    -0.04900000
opls_145-172    C    0.50000000    0.56023994    0.86657019    -0.07940000
opls_700-173    C    0.50000000    0.52711019    0.90950002    0.03480000
opls_700-174    C    0.50000000    0.54363984    0.96182018    0.05000000
opls_142-175    C    0.50000000    0.64801983    0.83268999    0.01490000
opls_145-176    C    0.50000000    0.71870991    0.74543995    -0.10810000
opls_145-177    C    0.50000000    0.75017985    0.70090997    -0.07260000
opls_700-178    C    0.50000000    0.73164004    0.64819988    0.02570000
opls_700-179    C    0.50000000    0.67833988    0.64200986    0.14780000
opls_145-180    C    0.50000000    0.64711985    0.68699983    -0.16230000
opls_145-181    C    0.50000000    0.66676009    0.73862980    0.23970000
opls_181-182    C    0.50000000    0.69702993    0.99454019    -0.16770000
opls_148-183    C    0.50000000    0.65203000    0.58933019    -0.35240000
opls_145-184    C    0.50000000    0.90527996    0.27649016    -0.17480000
opls_166-185    C    0.50000000    0.87028993    0.31913015    0.28230000
opls_700-186    C    0.50000000    0.88794999    0.37271017    -0.04900000
opls_145-187    C    0.50000000    0.93976006    0.38343001    -0.07940000
opls_700-188    C    0.50000000    0.97288981    0.34050018    0.03480000
opls_700-189    C    0.50000000    0.95636016    0.28818002    0.05000000
opls_142-190    C    0.50000000    0.85198017    0.41730981    0.01490000
opls_145-191    C    0.50000000    0.78129009    0.50455985    -0.10830000
opls_145-192    C    0.50000000    0.74982015    0.54908983    -0.07270000
opls_700-193    C    0.50000000    0.76835996    0.60179992    0.02570000
opls_700-194    C    0.50000000    0.82166012    0.60798994    0.14780000
opls_145-195    C    0.50000000    0.85288015    0.56299997    -0.16230000
opls_145-196    C    0.50000000    0.83323991    0.51137000    0.23970000
opls_181-197    C    0.50000000    0.80297007    0.25546001    -0.16770000
opls_148-198    C    0.50000000    0.84797000    0.66067001    -0.35250000
opls_145-199    C    0.00000000    0.59472004    0.77649016    -0.17490000
opls_166-200    C    0.00000000    0.62971007    0.81913015    0.28230000
opls_700-201    C    0.00000000    0.61205001    0.87271017    -0.04900000
opls_145-202    C    0.00000000    0.56023994    0.88343001    -0.07940000
opls_700-203    C    0.00000000    0.52711019    0.84050018    0.03480000
opls_700-204    C    0.00000000    0.54363984    0.78818002    0.05000000
opls_142-205    C    0.00000000    0.64801983    0.91730981    0.01490000
opls_145-206    C    0.00000000    0.71870991    0.00455985    -0.10830000
opls_145-207    C    0.00000000    0.75017985    0.04908983    -0.07270000
opls_700-208    C    0.00000000    0.73164004    0.10179992    0.02570000
opls_700-209    C    0.00000000    0.67833988    0.10798994    0.14780000
opls_145-210    C    0.00000000    0.64711985    0.06299997    -0.16220000
opls_145-211    C    0.00000000    0.66676009    0.01137000    0.23970000
opls_181-212    C    0.00000000    0.69702993    0.75546001    -0.16760000
opls_148-213    C    0.00000000    0.65203000    0.16067001    -0.35250000
opls_145-214    C    0.59472004    0.50000000    0.02648996    -0.17490000
opls_166-215    C    0.62971007    0.50000000    0.06912995    0.28240000
opls_700-216    C    0.61205001    0.50000000    0.12270997    -0.04900000
opls_145-217    C    0.56023994    0.50000000    0.13342981    -0.07930000
opls_700-218    C    0.52711019    0.50000000    0.09049998    0.03480000
opls_700-219    C    0.54363984    0.50000000    0.03817982    0.05000000
opls_142-220    C    0.64801983    0.50000000    0.16731001    0.01490000
opls_145-221    C    0.71870991    0.50000000    0.25456005    -0.10830000
opls_145-222    C    0.75017985    0.50000000    0.29909003    -0.07270000
opls_700-223    C    0.73164004    0.50000000    0.35180012    0.02570000
opls_700-224    C    0.67833988    0.50000000    0.35799014    0.14780000
opls_145-225    C    0.64711985    0.50000000    0.31300017    -0.16230000
opls_145-226    C    0.66676009    0.50000000    0.26137020    0.23970000
opls_181-227    C    0.69702993    0.50000000    0.00545981    -0.16750000
opls_148-228    C    0.65203000    0.50000000    0.41066981    -0.35240000
opls_145-229    C    0.90527996    0.00000000    0.52648996    -0.17490000
opls_166-230    C    0.87028993    0.00000000    0.56912995    0.28230000
opls_700-231    C    0.88794999    0.00000000    0.62270997    -0.04900000
opls_145-232    C    0.93976006    0.00000000    0.63342981    -0.07940000
opls_700-233    C    0.97288981    0.00000000    0.59049998    0.03480000
opls_700-234    C    0.95636016    0.00000000    0.53817982    0.05000000
opls_142-235    C    0.85198017    0.00000000    0.66731001    0.01490000
opls_145-236    C    0.78129009    0.00000000    0.75456005    -0.10830000
opls_145-237    C    0.74982015    0.00000000    0.79909003    -0.07270000
opls_700-238    C    0.76835996    0.00000000    0.85180012    0.02570000
opls_700-239    C    0.82166012    0.00000000    0.85799014    0.14780000
opls_145-240    C    0.85288015    0.00000000    0.81300017    -0.16230000
opls_145-241    C    0.83323991    0.00000000    0.76137020    0.23980000
opls_181-242    C    0.80297007    0.00000000    0.50545981    -0.16770000
opls_148-243    C    0.84797000    0.00000000    0.91066981    -0.35240000
opls_750-244    N    0.00000000    0.13313013    0.28327989    -0.27610000
opls_750-245    N    0.50000000    0.36686987    0.78327989    -0.27630000
opls_750-246    N    0.86686987    0.50000000    0.53328009    -0.27630000
opls_750-247    N    0.63313013    0.00000000    0.03328009    -0.27630000
opls_750-248    N    0.00000000    0.36686987    0.96671991    -0.27620000
opls_750-249    N    0.50000000    0.13313013    0.46671991    -0.27620000
opls_750-250    N    0.13313013    0.00000000    0.71672011    -0.27630000
opls_750-251    N    0.36686987    0.50000000    0.21672011    -0.27630000
opls_750-252    N    0.36686987    0.00000000    0.03328009    -0.27630000
opls_750-253    N    0.13313013    0.50000000    0.53328009    -0.27620000
opls_750-254    N    0.00000000    0.86686987    0.28327989    -0.27620000
opls_750-255    N    0.50000000    0.63313013    0.78327989    -0.27630000
opls_750-256    N    0.50000000    0.86686987    0.46671991    -0.27620000
opls_750-257    N    0.00000000    0.63313013    0.96671991    -0.27630000
opls_750-258    N    0.63313013    0.50000000    0.21672011    -0.27630000
opls_750-259    N    0.86686987    0.00000000    0.71672011    -0.27620000
opls_179-260    O    0.00000000    0.18178017    0.43991008    -0.15270000
opls_179-261    O    0.50000000    0.31821983    0.93991008    -0.15270000
opls_179-262    O    0.81821983    0.50000000    0.68990988    -0.15270000
opls_179-263    O    0.68178017    0.00000000    0.18990988    -0.15270000
opls_179-264    O    0.00000000    0.31821983    0.81009012    -0.15260000
opls_179-265    O    0.50000000    0.18178017    0.31009012    -0.15270000
opls_179-266    O    0.18178017    0.00000000    0.56008992    -0.15270000
opls_179-267    O    0.31821983    0.50000000    0.06008992    -0.15270000
opls_179-268    O    0.31821983    0.00000000    0.18990988    -0.15270000
opls_179-269    O    0.18178017    0.50000000    0.68990988    -0.15270000
opls_179-270    O    0.00000000    0.81821983    0.43991008    -0.15270000
opls_179-271    O    0.50000000    0.68178017    0.93991008    -0.15270000
opls_179-272    O    0.50000000    0.81821983    0.31009012    -0.15270000
opls_179-273    O    0.00000000    0.68178017    0.81009012    -0.15270000
opls_179-274    O    0.68178017    0.50000000    0.06008992    -0.15270000
opls_179-275    O    0.81821983    0.00000000    0.56008992    -0.15270000
opls_185-276    H    0.02014005    0.23451981    0.49846991    0.06960000
opls_185-277    H    0.02014005    0.16767992    0.51976989    0.06960000
opls_185-278    H    0.95973001    0.20110005    0.50912010    0.06960000
opls_702-279    H    0.02012994    0.11455998    0.09346008    0.10320000
opls_702-280    H    0.02012994    0.17608994    0.05837006    0.10320000
opls_702-281    H    0.95973001    0.14533002    0.07591007    0.10320000
opls_146-282    H    0.00000000    0.10845011    0.51672011    0.05070000
opls_146-283    H    0.00000000    0.04631017    0.32343018    0.05070000
opls_144-284    H    0.00000000    0.18997999    0.34120998    0.02990000
opls_146-285    H    0.00000000    0.23536996    0.28746982    0.05070000
opls_146-286    H    0.00000000    0.29257014    0.20650989    0.05070000
opls_146-287    H    0.00000000    0.10468010    0.18178983    0.05070000
opls_185-288    H    0.47985995    0.26548019    0.99846991    0.06960000
opls_185-289    H    0.47985995    0.33232008    0.01976989    0.06960000
opls_185-290    H    0.54026999    0.29889995    0.00912010    0.06960000
opls_702-291    H    0.47987006    0.38544002    0.59346008    0.10320000
opls_702-292    H    0.47987006    0.32391006    0.55837006    0.10320000
opls_702-293    H    0.54026999    0.35466998    0.57591007    0.10330000
opls_146-294    H    0.50000000    0.39154989    0.01672011    0.05070000
opls_146-295    H    0.50000000    0.45368983    0.82343018    0.05070000
opls_144-296    H    0.50000000    0.31002001    0.84120998    0.02990000
opls_146-297    H    0.50000000    0.26463004    0.78746982    0.05080000
opls_146-298    H    0.50000000    0.20742986    0.70650989    0.05070000
opls_146-299    H    0.50000000    0.39531990    0.68178983    0.05070000
opls_185-300    H    0.76548019    0.52014005    0.74847011    0.06970000
opls_185-301    H    0.83232008    0.52014005    0.76977009    0.06960000
opls_185-302    H    0.79889995    0.45973001    0.75911990    0.06960000
opls_702-303    H    0.88544002    0.52012994    0.34345988    0.10320000
opls_702-304    H    0.82391006    0.52012994    0.30836986    0.10320000
opls_702-305    H    0.85466998    0.45973001    0.32590987    0.10320000
opls_146-306    H    0.89154989    0.50000000    0.76671991    0.05070000
opls_146-307    H    0.95368983    0.50000000    0.57342997    0.05080000
opls_144-308    H    0.81002001    0.50000000    0.59121018    0.02990000
opls_146-309    H    0.76463004    0.50000000    0.53747002    0.05070000
opls_146-310    H    0.70742986    0.50000000    0.45651009    0.05070000
opls_146-311    H    0.89531990    0.50000000    0.43179003    0.05070000
opls_185-312    H    0.73451981    0.97985995    0.24847011    0.06960000
opls_185-313    H    0.66767992    0.97985995    0.26977009    0.06960000
opls_185-314    H    0.70110005    0.04026999    0.25911990    0.06970000
opls_702-315    H    0.61455998    0.97987006    0.84345988    0.10320000
opls_702-316    H    0.67608994    0.97987006    0.80836986    0.10320000
opls_702-317    H    0.64533002    0.04026999    0.82590987    0.10320000
opls_146-318    H    0.60845011    0.00000000    0.26671991    0.05070000
opls_146-319    H    0.54631017    0.00000000    0.07342997    0.05070000
opls_144-320    H    0.68997999    0.00000000    0.09121018    0.02990000
opls_146-321    H    0.73536996    0.00000000    0.03747002    0.05070000
opls_146-322    H    0.79257014    0.00000000    0.95651009    0.05070000
opls_146-323    H    0.60468010    0.00000000    0.93179003    0.05070000
opls_185-324    H    0.97985995    0.26548019    0.75152989    0.06960000
opls_185-325    H    0.97985995    0.33232008    0.73022991    0.06960000
opls_185-326    H    0.04026999    0.29889995    0.74088010    0.06960000
opls_702-327    H    0.97987006    0.38544002    0.15654012    0.10320000
opls_702-328    H    0.97987006    0.32391006    0.19163014    0.10320000
opls_702-329    H    0.04026999    0.35466998    0.17409013    0.10320000
opls_146-330    H    0.00000000    0.39154989    0.73328009    0.05070000
opls_146-331    H    0.00000000    0.45368983    0.92657003    0.05070000
opls_144-332    H    0.00000000    0.31002001    0.90878982    0.02990000
opls_146-333    H    0.00000000    0.26463004    0.96252998    0.05070000
opls_146-334    H    0.00000000    0.20742986    0.04348991    0.05070000
opls_146-335    H    0.00000000    0.39531990    0.06820997    0.05070000
opls_185-336    H    0.52014005    0.23451981    0.25152989    0.06960000
opls_185-337    H    0.52014005    0.16767992    0.23022991    0.06960000
opls_185-338    H    0.45973001    0.20110005    0.24088010    0.06960000
opls_702-339    H    0.52012994    0.11455998    0.65654012    0.10330000
opls_702-340    H    0.52012994    0.17608994    0.69163014    0.10320000
opls_702-341    H    0.45973001    0.14533002    0.67409013    0.10320000
opls_146-342    H    0.50000000    0.10845011    0.23328009    0.05070000
opls_146-343    H    0.50000000    0.04631017    0.42657003    0.05070000
opls_144-344    H    0.50000000    0.18997999    0.40878982    0.02990000
opls_146-345    H    0.50000000    0.23536996    0.46252998    0.05070000
opls_146-346    H    0.50000000    0.29257014    0.54348991    0.05070000
opls_146-347    H    0.50000000    0.10468010    0.56820997    0.05070000
opls_185-348    H    0.23451981    0.97985995    0.50153009    0.06960000
opls_185-349    H    0.16767992    0.97985995    0.48023011    0.06960000
opls_185-350    H    0.20110005    0.04026999    0.49087990    0.06960000
opls_702-351    H    0.11455998    0.97987006    0.90653992    0.10320000
opls_702-352    H    0.17608994    0.97987006    0.94162994    0.10320000
opls_702-353    H    0.14533002    0.04026999    0.92408993    0.10320000
opls_146-354    H    0.10845011    0.00000000    0.48327989    0.05070000
opls_146-355    H    0.04631017    0.00000000    0.67656982    0.05070000
opls_144-356    H    0.18997999    0.00000000    0.65879002    0.02990000
opls_146-357    H    0.23536996    0.00000000    0.71253018    0.05070000
opls_146-358    H    0.29257014    0.00000000    0.79349011    0.05070000
opls_146-359    H    0.10468010    0.00000000    0.81821017    0.05070000
opls_185-360    H    0.26548019    0.52014005    0.00153009    0.06960000
opls_185-361    H    0.33232008    0.52014005    0.98023011    0.06960000
opls_185-362    H    0.29889995    0.45973001    0.99087990    0.06960000
opls_702-363    H    0.38544002    0.52012994    0.40653992    0.10320000
opls_702-364    H    0.32391006    0.52012994    0.44162994    0.10320000
opls_702-365    H    0.35466998    0.45973001    0.42408993    0.10320000
opls_146-366    H    0.39154989    0.50000000    0.98327989    0.05070000
opls_146-367    H    0.45368983    0.50000000    0.17656982    0.05080000
opls_144-368    H    0.31002001    0.50000000    0.15879002    0.02990000
opls_146-369    H    0.26463004    0.50000000    0.21253018    0.05070000
opls_146-370    H    0.20742986    0.50000000    0.29349011    0.05070000
opls_146-371    H    0.39531990    0.50000000    0.31821017    0.05070000
opls_185-372    H    0.26548019    0.02014005    0.24847011    0.06960000
opls_185-373    H    0.33232008    0.02014005    0.26977009    0.06960000
opls_185-374    H    0.29889995    0.95973001    0.25911990    0.06960000
opls_702-375    H    0.38544002    0.02012994    0.84345988    0.10320000
opls_702-376    H    0.32391006    0.02012994    0.80836986    0.10320000
opls_702-377    H    0.35466998    0.95973001    0.82590987    0.10320000
opls_146-378    H    0.39154989    0.00000000    0.26671991    0.05070000
opls_146-379    H    0.45368983    0.00000000    0.07342997    0.05070000
opls_144-380    H    0.31002001    0.00000000    0.09121018    0.02990000
opls_146-381    H    0.26463004    0.00000000    0.03747002    0.05070000
opls_146-382    H    0.20742986    0.00000000    0.95651009    0.05070000
opls_146-383    H    0.39531990    0.00000000    0.93179003    0.05070000
opls_185-384    H    0.23451981    0.47985995    0.74847011    0.06960000
opls_185-385    H    0.16767992    0.47985995    0.76977009    0.06970000
opls_185-386    H    0.20110005    0.54026999    0.75911990    0.06960000
opls_702-387    H    0.11455998    0.47987006    0.34345988    0.10320000
opls_702-388    H    0.17608994    0.47987006    0.30836986    0.10320000
opls_702-389    H    0.14533002    0.54026999    0.32590987    0.10320000
opls_146-390    H    0.10845011    0.50000000    0.76671991    0.05070000
opls_146-391    H    0.04631017    0.50000000    0.57342997    0.05070000
opls_144-392    H    0.18997999    0.50000000    0.59121018    0.02990000
opls_146-393    H    0.23536996    0.50000000    0.53747002    0.05070000
opls_146-394    H    0.29257014    0.50000000    0.45651009    0.05070000
opls_146-395    H    0.10468010    0.50000000    0.43179003    0.05070000
opls_185-396    H    0.97985995    0.76548019    0.49846991    0.06960000
opls_185-397    H    0.97985995    0.83232008    0.51976989    0.06960000
opls_185-398    H    0.04026999    0.79889995    0.50912010    0.06960000
opls_702-399    H    0.97987006    0.88544002    0.09346008    0.10320000
opls_702-400    H    0.97987006    0.82391006    0.05837006    0.10320000
opls_702-401    H    0.04026999    0.85466998    0.07591007    0.10320000
opls_146-402    H    0.00000000    0.89154989    0.51672011    0.05070000
opls_146-403    H    0.00000000    0.95368983    0.32343018    0.05070000
opls_144-404    H    0.00000000    0.81002001    0.34120998    0.02990000
opls_146-405    H    0.00000000    0.76463004    0.28746982    0.05070000
opls_146-406    H    0.00000000    0.70742986    0.20650989    0.05070000
opls_146-407    H    0.00000000    0.89531990    0.18178983    0.05070000
opls_185-408    H    0.52014005    0.73451981    0.99846991    0.06960000
opls_185-409    H    0.52014005    0.66767992    0.01976989    0.06960000
opls_185-410    H    0.45973001    0.70110005    0.00912010    0.06970000
opls_702-411    H    0.52012994    0.61455998    0.59346008    0.10320000
opls_702-412    H    0.52012994    0.67608994    0.55837006    0.10320000
opls_702-413    H    0.45973001    0.64533002    0.57591007    0.10320000
opls_146-414    H    0.50000000    0.60845011    0.01672011    0.05070000
opls_146-415    H    0.50000000    0.54631017    0.82343018    0.05070000
opls_144-416    H    0.50000000    0.68997999    0.84120998    0.02990000
opls_146-417    H    0.50000000    0.73536996    0.78746982    0.05070000
opls_146-418    H    0.50000000    0.79257014    0.70650989    0.05070000
opls_146-419    H    0.50000000    0.60468010    0.68178983    0.05070000
opls_185-420    H    0.47985995    0.76548019    0.25152989    0.06960000
opls_185-421    H    0.47985995    0.83232008    0.23022991    0.06960000
opls_185-422    H    0.54026999    0.79889995    0.24088010    0.06960000
opls_702-423    H    0.47987006    0.88544002    0.65654012    0.10320000
opls_702-424    H    0.47987006    0.82391006    0.69163014    0.10340000
opls_702-425    H    0.54026999    0.85466998    0.67409013    0.10320000
opls_146-426    H    0.50000000    0.89154989    0.23328009    0.05070000
opls_146-427    H    0.50000000    0.95368983    0.42657003    0.05070000
opls_144-428    H    0.50000000    0.81002001    0.40878982    0.02990000
opls_146-429    H    0.50000000    0.76463004    0.46252998    0.05070000
opls_146-430    H    0.50000000    0.70742986    0.54348991    0.05070000
opls_146-431    H    0.50000000    0.89531990    0.56820997    0.05070000
opls_185-432    H    0.02014005    0.73451981    0.75152989    0.06960000
opls_185-433    H    0.02014005    0.66767992    0.73022991    0.06960000
opls_185-434    H    0.95973001    0.70110005    0.74088010    0.06960000
opls_702-435    H    0.02012994    0.61455998    0.15654012    0.10320000
opls_702-436    H    0.02012994    0.67608994    0.19163014    0.10320000
opls_702-437    H    0.95973001    0.64533002    0.17409013    0.10320000
opls_146-438    H    0.00000000    0.60845011    0.73328009    0.05080000
opls_146-439    H    0.00000000    0.54631017    0.92657003    0.05070000
opls_144-440    H    0.00000000    0.68997999    0.90878982    0.02990000
opls_146-441    H    0.00000000    0.73536996    0.96252998    0.05070000
opls_146-442    H    0.00000000    0.79257014    0.04348991    0.05070000
opls_146-443    H    0.00000000    0.60468010    0.06820997    0.05070000
opls_185-444    H    0.73451981    0.47985995    0.00153009    0.06960000
opls_185-445    H    0.66767992    0.47985995    0.98023011    0.06960000
opls_185-446    H    0.70110005    0.54026999    0.99087990    0.06960000
opls_702-447    H    0.61455998    0.47987006    0.40653992    0.10320000
opls_702-448    H    0.67608994    0.47987006    0.44162994    0.10320000
opls_702-449    H    0.64533002    0.54026999    0.42408993    0.10330000
opls_146-450    H    0.60845011    0.50000000    0.98327989    0.05070000
opls_146-451    H    0.54631017    0.50000000    0.17656982    0.05070000
opls_144-452    H    0.68997999    0.50000000    0.15879002    0.02990000
opls_146-453    H    0.73536996    0.50000000    0.21253018    0.05070000
opls_146-454    H    0.79257014    0.50000000    0.29349011    0.05070000
opls_146-455    H    0.60468010    0.50000000    0.31821017    0.05070000
opls_185-456    H    0.76548019    0.02014005    0.50153009    0.06960000
opls_185-457    H    0.83232008    0.02014005    0.48023011    0.06960000
opls_185-458    H    0.79889995    0.95973001    0.49087990    0.06960000
opls_702-459    H    0.88544002    0.02012994    0.90653992    0.10320000
opls_702-460    H    0.82391006    0.02012994    0.94162994    0.10320000
opls_702-461    H    0.85466998    0.95973001    0.92408993    0.10320000
opls_146-462    H    0.89154989    0.00000000    0.48327989    0.05070000
opls_146-463    H    0.95368983    0.00000000    0.67656982    0.05070000
opls_144-464    H    0.81002001    0.00000000    0.65879002    0.02990000
opls_146-465    H    0.76463004    0.00000000    0.71253018    0.05070000
opls_146-466    H    0.70742986    0.00000000    0.79349011    0.05070000
opls_146-467    H    0.89531990    0.00000000    0.81821017    0.05070000
