#======================================================================
# Crystal Data Generated By AuToFF
#----------------------------------------------------------------------

data_AuToFF_phase_1

_cell_length_a                         7.2624
_cell_length_b                         36.6977
_cell_length_c                         63.5623
_cell_angle_alpha                      90.00
_cell_angle_beta                       90.00
_cell_angle_gamma                      90.00
_symmetry_space_group_name_H-M_alt     'P 1'
_symmetry_space_group_IT_number        1

loop_
_space_group_symop_operation_xyz
   'x, y, z'

loop_
   _atom_site_label
   _atom_site_type_symbol
   _atom_site_fract_x
   _atom_site_fract_y
   _atom_site_fract_z
   _atom_site_charge
opls_145-0    C    0.76688973    0.59922011    0.87554997    -0.12250000
opls_145-1    C    0.64347048    0.39643002    0.23612000    -0.12250000
opls_142-2    C    0.76695996    0.46756009    0.94668003    -0.12250000
opls_145-3    C    0.64340025    0.52809004    0.16498994    -0.12250000
opls_145-4    C    0.76700953    0.42671012    0.84529005    -0.12250000
opls_145-5    C    0.64335068    0.56894002    0.26638007    -0.12240000
opls_145-6    C    0.76731934    0.63224998    0.86473004    -0.15540000
opls_145-7    C    0.64303949    0.36339989    0.24693993    -0.15540000
opls_142-8    C    0.76734000    0.46726007    0.96859994    -0.15590000
opls_145-9    C    0.64302021    0.52839006    0.14307003    -0.15540000
opls_145-10    C    0.76736065    0.39398000    0.83416994    -0.15540000
opls_145-11    C    0.64299956    0.60167013    0.27750003    -0.15760000
opls_234-12    C    0.76352032    0.67163010    0.81141007    0.44990000
opls_234-13    C    0.64683989    0.32402003    0.30026006    0.44020000
opls_234-14    C    0.76349003    0.52754996    0.01495006    0.45020000
opls_234-15    C    0.64687018    0.46809991    0.09672007    0.44980000
opls_234-16    C    0.76352032    0.29431000    0.84113004    0.45110000
opls_234-17    C    0.64683989    0.70134995    0.27053993    0.45020000
opls_700-18    C    0.73788968    0.71102004    0.80613005    -0.05500000
opls_700-19    C    0.67245952    0.28463010    0.30554008    -0.05500000
opls_700-20    C    0.73787040    0.51578001    0.03727996    -0.04710000
opls_700-21    C    0.67248981    0.47987013    0.07439001    -0.07240000
opls_700-22    C    0.73791033    0.26669001    0.82408000    -0.04450000
opls_700-23    C    0.67244988    0.72896013    0.28758997    -0.04560000
opls_145-24    C    0.70514981    0.53062998    0.90010997    -0.15960000
opls_145-25    C    0.70521040    0.46501988    0.21156000    -0.15580000
opls_700-26    C    0.70514017    0.53137990    0.87798994    0.07550000
opls_700-27    C    0.70522004    0.46426997    0.23368003    0.07520000
opls_700-28    C    0.70510988    0.56659000    0.86624996    0.06860000
opls_700-29    C    0.70525033    0.42906013    0.24542001    0.06860000
opls_145-30    C    0.70518974    0.63362990    0.84389001    0.18300000
opls_145-31    C    0.70517047    0.36201996    0.26777996    0.18350000
opls_145-32    C    0.63788004    0.76638999    0.82440000    -0.16250000
opls_145-33    C    0.77248017    0.22925987    0.28726997    -0.15980000
opls_701-34    C    0.63792961    0.46068991    0.05584002    -0.16190000
opls_145-35    C    0.76688973    0.09922011    0.37554997    -0.12250000
opls_145-36    C    0.64347048    0.89643002    0.73612000    -0.12250000
opls_142-37    C    0.76695996    0.96756009    0.44668003    -0.12250000
opls_145-38    C    0.64340025    0.02809004    0.66498994    -0.12240000
opls_145-39    C    0.76700953    0.92671012    0.34529005    -0.12250000
opls_145-40    C    0.64335068    0.06894002    0.76638007    -0.12170000
opls_145-41    C    0.76731934    0.13224998    0.36473004    -0.15540000
opls_145-42    C    0.64303949    0.86339989    0.74693993    -0.15540000
opls_142-43    C    0.76734000    0.96726007    0.46859994    -0.15590000
opls_145-44    C    0.64302021    0.02839006    0.64307003    -0.15540000
opls_145-45    C    0.76736065    0.89398000    0.33416994    -0.15540000
opls_145-46    C    0.64299956    0.10167013    0.77755006    -0.15760000
opls_234-47    C    0.76352032    0.17163010    0.31141007    0.44990000
opls_234-48    C    0.64683989    0.82402003    0.80026006    0.44020000
opls_234-49    C    0.76349003    0.02754996    0.51495006    0.45020000
opls_234-50    C    0.64687018    0.96809991    0.59672007    0.44980000
opls_234-51    C    0.76352032    0.79431000    0.34113004    0.45110000
opls_234-52    C    0.64683989    0.20134995    0.77053993    0.45020000
opls_700-53    C    0.73788968    0.21102004    0.30613005    -0.05500000
opls_700-54    C    0.67245952    0.78463010    0.80554008    -0.05500000
opls_700-55    C    0.73787040    0.01578001    0.53727996    -0.04710000
opls_700-56    C    0.67248981    0.97987013    0.57439001    -0.07240000
opls_700-57    C    0.73791033    0.76669001    0.32408000    -0.04450000
opls_700-58    C    0.67244988    0.22896013    0.78758997    -0.04560000
opls_145-59    C    0.70514981    0.03062998    0.40010997    -0.15950000
opls_145-60    C    0.70521040    0.96501988    0.71156000    -0.15580000
opls_700-61    C    0.70514017    0.03137990    0.37798994    0.07550000
opls_700-62    C    0.70522004    0.96426997    0.73368003    0.07520000
opls_700-63    C    0.70510988    0.06659000    0.36624996    0.06860000
opls_700-64    C    0.70525033    0.92906013    0.74542001    0.06860000
opls_145-65    C    0.70518974    0.13362990    0.34389001    0.18300000
opls_145-66    C    0.70517047    0.86201996    0.76777996    0.18350000
opls_145-67    C    0.63788004    0.26638999    0.32440000    -0.16250000
opls_145-68    C    0.77248017    0.72925987    0.78726997    -0.15980000
opls_701-69    C    0.63792961    0.96068991    0.55584002    -0.16190000
opls_145-70    C    0.64347048    0.39643002    0.87554997    -0.12250000
opls_145-71    C    0.76688973    0.59922011    0.23612000    -0.12250000
opls_701-72    C    0.64340025    0.52809004    0.94668003    -0.03460000
opls_145-73    C    0.76695996    0.46756009    0.16498994    -0.12250000
opls_145-74    C    0.64335068    0.56894002    0.84529005    -0.12250000
opls_145-75    C    0.76700953    0.42671012    0.26638007    -0.12240000
opls_145-76    C    0.64303949    0.36339989    0.86473004    -0.15540000
opls_145-77    C    0.76731934    0.63224998    0.24693993    -0.15540000
opls_142-78    C    0.64302021    0.52839006    0.96859994    -0.20170000
opls_145-79    C    0.76734000    0.46726007    0.14307003    -0.15590000
opls_145-80    C    0.64299956    0.60167013    0.83416994    -0.15540000
opls_145-81    C    0.76736065    0.39398000    0.27750003    -0.15760000
opls_234-82    C    0.64683989    0.32402003    0.81141007    0.45110000
opls_234-83    C    0.76352032    0.67163010    0.30026006    0.45110000
opls_234-84    C    0.64687018    0.46809991    0.01495006    0.46410000
opls_234-85    C    0.76349003    0.52754996    0.09672007    0.45020000
opls_234-86    C    0.64683989    0.70134995    0.84113004    0.45110000
opls_234-87    C    0.76352032    0.29431000    0.27053993    0.45020000
opls_700-88    C    0.67245952    0.28463010    0.80613005    -0.05500000
opls_700-89    C    0.73788968    0.71102004    0.30554008    -0.05500000
opls_700-90    C    0.67248981    0.47987013    0.03727996    -0.07190000
opls_700-91    C    0.73787040    0.51578001    0.07439001    -0.04560000
opls_700-92    C    0.67244988    0.72896013    0.82408000    -0.04560000
opls_700-93    C    0.73791033    0.26669001    0.28758997    -0.04450000
opls_145-94    C    0.70521040    0.46501988    0.90010997    -0.15580000
opls_145-95    C    0.70514981    0.53062998    0.21156000    -0.15960000
opls_700-96    C    0.70522004    0.46426997    0.87798994    0.07560000
opls_700-97    C    0.70514017    0.53137990    0.23368003    0.07560000
opls_700-98    C    0.70525033    0.42906013    0.86624996    0.06860000
opls_700-99    C    0.70510988    0.56659000    0.24542001    0.06860000
opls_145-100    C    0.70517047    0.36201996    0.84389001    0.18350000
opls_145-101    C    0.70518974    0.63362990    0.26777996    0.18300000
opls_145-102    C    0.77248017    0.22925987    0.82440000    -0.16250000
opls_145-103    C    0.63788004    0.76638999    0.28726997    -0.15980000
opls_142-104    C    0.77243060    0.53497004    0.05584002    -0.15650000
opls_145-105    C    0.64347048    0.89643002    0.37554997    -0.12250000
opls_145-106    C    0.76688973    0.09922011    0.73612000    -0.12250000
opls_701-107    C    0.64340025    0.02809004    0.44668003    -0.03460000
opls_145-108    C    0.76695996    0.96756009    0.66498994    -0.12250000
opls_145-109    C    0.64335068    0.06894002    0.34529005    -0.12250000
opls_145-110    C    0.76700953    0.92671012    0.76638007    -0.12240000
opls_145-111    C    0.64303949    0.86339989    0.36473004    -0.15540000
opls_145-112    C    0.76731934    0.13224998    0.74693993    -0.15540000
opls_142-113    C    0.64302021    0.02839006    0.46859994    -0.20180000
opls_145-114    C    0.76734000    0.96726007    0.64307003    -0.15590000
opls_145-115    C    0.64299956    0.10167013    0.33416994    -0.15540000
opls_145-116    C    0.76736065    0.89398000    0.77750003    -0.15760000
opls_234-117    C    0.64683989    0.82402003    0.31141007    0.45110000
opls_234-118    C    0.76352032    0.17163010    0.80026006    0.45110000
opls_234-119    C    0.64687018    0.96809991    0.51495006    0.46410000
opls_234-120    C    0.76349003    0.02754996    0.59672007    0.45020000
opls_234-121    C    0.64683989    0.20134995    0.34113004    0.45110000
opls_234-122    C    0.76352032    0.79431000    0.77053993    0.45020000
opls_700-123    C    0.67245952    0.78463010    0.30613005    -0.05500000
opls_700-124    C    0.73788968    0.21102004    0.80554008    -0.05500000
opls_700-125    C    0.67248981    0.97987013    0.53727996    -0.07190000
opls_700-126    C    0.73787040    0.01578001    0.57439001    -0.04560000
opls_700-127    C    0.67244988    0.22896013    0.32408000    -0.04560000
opls_700-128    C    0.73791033    0.76669001    0.78758997    -0.04450000
opls_145-129    C    0.70521040    0.96501988    0.40010997    -0.15580000
opls_145-130    C    0.70514981    0.03062998    0.71156000    -0.15960000
opls_700-131    C    0.70522004    0.96426997    0.37798994    0.07560000
opls_700-132    C    0.70514017    0.03137990    0.73368003    0.07560000
opls_700-133    C    0.70525033    0.92906013    0.36624996    0.06860000
opls_700-134    C    0.70510988    0.06659000    0.74542001    0.06860000
opls_145-135    C    0.70517047    0.86201996    0.34389001    0.18350000
opls_145-136    C    0.70518974    0.13362990    0.76777996    0.18030000
opls_145-137    C    0.77248017    0.72925987    0.32440000    -0.16250000
opls_145-138    C    0.63788004    0.26638999    0.78726997    -0.15980000
opls_142-139    C    0.77243060    0.03497004    0.55584002    -0.15650000
opls_145-140    C    0.29028007    0.39895007    0.12155004    -0.12250000
opls_145-141    C    0.41369933    0.60174997    0.76098001    -0.12240000
opls_142-142    C    0.29020021    0.53061990    0.05041998    -0.12250000
opls_145-143    C    0.41376955    0.47008995    0.83211007    -0.12250000
opls_145-144    C    0.29015064    0.57146987    0.15180996    -0.12250000
opls_145-145    C    0.41382050    0.42922990    0.73071994    -0.12240000
opls_145-146    C    0.28985046    0.36593002    0.13236997    -0.15550000
opls_145-147    C    0.41413032    0.63477003    0.75015992    -0.15540000
opls_142-148    C    0.28982017    0.53091992    0.02850007    -0.15540000
opls_145-149    C    0.41414959    0.46978012    0.85402998    -0.15540000
opls_145-150    C    0.28981053    0.60418991    0.16293007    -0.15540000
opls_145-151    C    0.41416061    0.39651014    0.71959998    -0.15760000
opls_234-152    C    0.29364948    0.32654989    0.18568995    0.44980000
opls_234-153    C    0.41032028    0.67415996    0.69683995    0.44020000
opls_234-154    C    0.29367014    0.47063004    0.98214995    0.45020000
opls_234-155    C    0.41029963    0.53008009    0.90037994    0.45020000
opls_234-156    C    0.29363984    0.70387000    0.15596997    0.45110000
opls_234-157    C    0.41032992    0.29683005    0.72655993    0.45110000
opls_700-158    C    0.31927049    0.28715996    0.19096996    -0.04560000
opls_700-159    C    0.38470065    0.71354990    0.69155993    -0.05500000
opls_700-160    C    0.31928977    0.48239999    0.95982005    -0.04450000
opls_700-161    C    0.38468000    0.51830006    0.92271000    -0.07240000
opls_700-162    C    0.31925947    0.73148998    0.17302001    -0.04560000
opls_700-163    C    0.38471993    0.26921006    0.70951004    -0.04560000
opls_145-164    C    0.35201035    0.46755001    0.09699004    -0.15960000
opls_145-165    C    0.35195941    0.53316012    0.78554001    -0.15960000
opls_700-166    C    0.35201999    0.46680010    0.11911007    0.07550000
opls_700-167    C    0.35194977    0.53389994    0.76341998    0.07520000
opls_700-168    C    0.35205029    0.43158999    0.13085005    0.07090000
opls_700-169    C    0.35191948    0.56912014    0.75168001    0.07090000
opls_145-170    C    0.35198006    0.36454001    0.15321000    0.18080000
opls_145-171    C    0.35199934    0.63616003    0.72932005    0.18080000
opls_145-172    C    0.41928977    0.23179000    0.17270001    -0.15980000
opls_145-173    C    0.28468000    0.76891004    0.70983004    -0.16250000
opls_701-174    C    0.41924020    0.53749009    0.94125999    -0.16190000
opls_145-175    C    0.29028007    0.89895007    0.62155004    -0.12250000
opls_145-176    C    0.41369933    0.10174997    0.26098001    -0.12240000
opls_142-177    C    0.29020021    0.03061990    0.55041998    -0.12250000
opls_145-178    C    0.41376955    0.97008995    0.33211007    -0.12250000
opls_145-179    C    0.29015064    0.07146987    0.65180996    -0.12250000
opls_145-180    C    0.41382050    0.92922990    0.23071994    -0.12240000
opls_145-181    C    0.28985046    0.86593002    0.63236997    -0.15550000
opls_145-182    C    0.41413032    0.13477003    0.25015992    -0.15540000
opls_142-183    C    0.28982017    0.03091992    0.52850007    -0.15540000
opls_145-184    C    0.41414959    0.96978012    0.35402998    -0.15540000
opls_145-185    C    0.28981053    0.10418991    0.66293007    -0.15540000
opls_145-186    C    0.41416061    0.89651014    0.21959998    -0.15760000
opls_234-187    C    0.29364948    0.82654989    0.68568995    0.44980000
opls_234-188    C    0.41032028    0.17415996    0.19683995    0.44020000
opls_234-189    C    0.29367014    0.97063004    0.48214995    0.45020000
opls_234-190    C    0.41029963    0.03008009    0.40037994    0.45020000
opls_234-191    C    0.29363984    0.20387000    0.65596997    0.45110000
opls_234-192    C    0.41032992    0.79683005    0.22655993    0.45110000
opls_700-193    C    0.31927049    0.78715996    0.69096996    -0.04560000
opls_700-194    C    0.38470065    0.21354990    0.19155993    -0.05500000
opls_700-195    C    0.31928977    0.98239999    0.45982005    -0.04450000
opls_700-196    C    0.38468000    0.01830006    0.42271000    -0.07240000
opls_700-197    C    0.31925947    0.23148998    0.67302001    -0.04560000
opls_700-198    C    0.38471993    0.76921006    0.20951004    -0.04560000
opls_145-199    C    0.35201035    0.96755001    0.59699004    -0.15960000
opls_145-200    C    0.35195941    0.03316012    0.28554001    -0.15950000
opls_700-201    C    0.35201999    0.96680010    0.61911007    0.07550000
opls_700-202    C    0.35194977    0.03389994    0.26341998    0.07520000
opls_700-203    C    0.35205029    0.93158999    0.63085005    0.07090000
opls_700-204    C    0.35191948    0.06912014    0.25168001    0.07090000
opls_145-205    C    0.35198006    0.86454001    0.65321000    0.18080000
opls_145-206    C    0.35199934    0.13616003    0.22932005    0.18080000
opls_145-207    C    0.41928977    0.73179000    0.67270001    -0.15980000
opls_145-208    C    0.28468000    0.26891004    0.20983004    -0.16250000
opls_701-209    C    0.41924020    0.03749009    0.44125999    -0.16190000
opls_145-210    C    0.41369933    0.60174997    0.12155004    -0.12240000
opls_145-211    C    0.29028007    0.39895007    0.76098001    -0.12250000
opls_701-212    C    0.41376955    0.47008995    0.05041998    -0.03460000
opls_145-213    C    0.29020021    0.53061990    0.83211007    -0.12250000
opls_145-214    C    0.41382050    0.42922990    0.15180996    -0.12250000
opls_145-215    C    0.29015064    0.57146987    0.73071994    -0.12240000
opls_145-216    C    0.41413032    0.63477003    0.13236997    -0.15540000
opls_145-217    C    0.28985046    0.36593002    0.75015992    -0.15550000
opls_142-218    C    0.41414959    0.46978012    0.02850007    -0.20180000
opls_145-219    C    0.28982017    0.53091992    0.85402998    -0.15540000
opls_145-220    C    0.41416061    0.39651014    0.16293007    -0.15540000
opls_145-221    C    0.28981053    0.60418991    0.71959998    -0.15760000
opls_234-222    C    0.41032028    0.67415996    0.18568995    0.45110000
opls_234-223    C    0.29364948    0.32654989    0.69683995    0.45120000
opls_234-224    C    0.41029963    0.53008009    0.98214995    0.46440000
opls_234-225    C    0.29367014    0.47063004    0.90037994    0.45020000
opls_234-226    C    0.41032992    0.29683005    0.15596997    0.45120000
opls_234-227    C    0.29363984    0.70387000    0.72655993    0.45110000
opls_700-228    C    0.38470065    0.71354990    0.19096996    -0.05500000
opls_700-229    C    0.31927049    0.28715996    0.69155993    -0.04560000
opls_700-230    C    0.38468000    0.51830006    0.95982005    -0.07190000
opls_700-231    C    0.31928977    0.48239999    0.92271000    -0.05500000
opls_700-232    C    0.38471993    0.26921006    0.17302001    -0.04560000
opls_700-233    C    0.31925947    0.73148998    0.70951004    -0.04560000
opls_145-234    C    0.35195941    0.53316012    0.09699004    -0.15960000
opls_145-235    C    0.35201035    0.46755001    0.78554001    -0.15960000
opls_700-236    C    0.35194977    0.53389994    0.11911007    0.07560000
opls_700-237    C    0.35201999    0.46680010    0.76341998    0.07560000
opls_700-238    C    0.35191948    0.56912014    0.13085005    0.07090000
opls_700-239    C    0.35205029    0.43158999    0.75168001    0.07090000
opls_145-240    C    0.35199934    0.63616003    0.15321000    0.18080000
opls_145-241    C    0.35198006    0.36454001    0.72932005    0.18350000
opls_145-242    C    0.28468000    0.76891004    0.17270001    -0.16250000
opls_145-243    C    0.41928977    0.23179000    0.70983004    -0.15970000
opls_142-244    C    0.28472957    0.46320996    0.94125999    -0.15650000
opls_145-245    C    0.41369933    0.10174997    0.62155004    -0.12240000
opls_145-246    C    0.29028007    0.89895007    0.26098001    -0.12250000
opls_701-247    C    0.41376955    0.97008995    0.55041998    -0.03460000
opls_145-248    C    0.29020021    0.03061990    0.33211007    -0.12250000
opls_145-249    C    0.41382050    0.92922990    0.65180996    -0.12250000
opls_145-250    C    0.29015064    0.07146987    0.23071994    -0.12240000
opls_145-251    C    0.41413032    0.13477003    0.63236997    -0.15540000
opls_145-252    C    0.28985046    0.86593002    0.25015992    -0.15550000
opls_142-253    C    0.41414959    0.96978012    0.52850007    -0.20180000
opls_145-254    C    0.28982017    0.03091992    0.35402998    -0.15540000
opls_145-255    C    0.41416061    0.89651014    0.66293007    -0.15540000
opls_145-256    C    0.28981053    0.10418991    0.21959998    -0.15760000
opls_234-257    C    0.41032028    0.17415996    0.68568995    0.45110000
opls_234-258    C    0.29364948    0.82654989    0.19683995    0.45110000
opls_234-259    C    0.41029963    0.03008009    0.48214995    0.46440000
opls_234-260    C    0.29367014    0.97063004    0.40037994    0.45020000
opls_234-261    C    0.41032992    0.79683005    0.65596997    0.45110000
opls_234-262    C    0.29363984    0.20387000    0.22655993    0.45110000
opls_700-263    C    0.38470065    0.21354990    0.69096996    -0.05500000
opls_700-264    C    0.31927049    0.78715996    0.19155993    -0.04560000
opls_700-265    C    0.38468000    0.01830006    0.45982005    -0.07190000
opls_700-266    C    0.31928977    0.98239999    0.42271000    -0.05500000
opls_700-267    C    0.38471993    0.76921006    0.67302001    -0.04560000
opls_700-268    C    0.31925947    0.23148998    0.20951004    -0.04560000
opls_145-269    C    0.35195941    0.03316012    0.59699004    -0.15960000
opls_145-270    C    0.35201035    0.96755001    0.28554001    -0.15960000
opls_700-271    C    0.35194977    0.03389994    0.61911007    0.07560000
opls_700-272    C    0.35201999    0.96680010    0.26341998    0.07560000
opls_700-273    C    0.35191948    0.06912014    0.63085005    0.07090000
opls_700-274    C    0.35205029    0.93158999    0.25168001    0.07090000
opls_145-275    C    0.35199934    0.13616003    0.65321000    0.18080000
opls_145-276    C    0.35198006    0.86454001    0.22932005    0.18350000
opls_145-277    C    0.28468000    0.26891004    0.67270001    -0.16250000
opls_145-278    C    0.41928977    0.73179000    0.20983004    -0.15980000
opls_142-279    C    0.28472957    0.96320996    0.44125999    -0.15640000
opls_145-280    C    0.70518011    0.49783011    0.86731002    -0.15580000
opls_145-281    C    0.70518011    0.49783011    0.24437001    -0.15580000
opls_700-282    C    0.70518011    0.49783011    0.91154002    0.07530000
opls_700-283    C    0.70518011    0.49783011    0.20012995    0.07530000
opls_700-284    C    0.70518011    0.49783011    0.93501006    0.04760000
opls_700-285    C    0.70518011    0.49783011    0.17666006    0.07190000
opls_141-286    C    0.70518011    0.49783011    0.97972005    0.18080000
opls_145-287    C    0.70518011    0.49783011    0.13195007    0.18080000
opls_145-288    C    0.70518011    0.99783011    0.36731002    -0.15580000
opls_145-289    C    0.70518011    0.99783011    0.74437001    -0.15580000
opls_700-290    C    0.70518011    0.99783011    0.41154002    0.07530000
opls_700-291    C    0.70518011    0.99783011    0.70012995    0.07540000
opls_700-292    C    0.70518011    0.99783011    0.43501006    0.04760000
opls_700-293    C    0.70518011    0.99783011    0.67666006    0.07190000
opls_141-294    C    0.70518011    0.99783011    0.47972005    0.18080000
opls_145-295    C    0.70518011    0.99783011    0.63195007    0.18090000
opls_145-296    C    0.35198970    0.50034989    0.12978999    -0.15960000
opls_145-297    C    0.35198970    0.50034989    0.75273000    -0.15960000
opls_700-298    C    0.35198970    0.50034989    0.08555999    0.07530000
opls_700-299    C    0.35198970    0.50034989    0.79697006    0.07530000
opls_700-300    C    0.35198970    0.50034989    0.06208995    0.04760000
opls_700-301    C    0.35198970    0.50034989    0.82043995    0.07190000
opls_141-302    C    0.35198970    0.50034989    0.01737996    0.18090000
opls_145-303    C    0.35198970    0.50034989    0.86514994    0.18090000
opls_145-304    C    0.35198970    0.00034989    0.62978999    -0.15960000
opls_145-305    C    0.35198970    0.00034989    0.25273000    -0.15960000
opls_700-306    C    0.35198970    0.00034989    0.58555999    0.07530000
opls_700-307    C    0.35198970    0.00034989    0.29697006    0.07530000
opls_700-308    C    0.35198970    0.00034989    0.56208995    0.04760000
opls_700-309    C    0.35198970    0.00034989    0.32043995    0.07190000
opls_141-310    C    0.35198970    0.00034989    0.51737996    0.18100000
opls_145-311    C    0.35198970    0.00034989    0.36514994    0.18090000
opls_236-312    O    0.58311027    0.70617995    0.85868998    -0.37390000
opls_236-313    O    0.82724994    0.28946991    0.25299006    -0.37900000
opls_236-314    O    0.58318049    0.43934007    0.00860007    -0.37780000
opls_236-315    O    0.82717972    0.55631007    0.10307006    -0.37690000
opls_236-316    O    0.58316948    0.34792998    0.80021003    -0.37880000
opls_236-317    O    0.82718936    0.64772997    0.31147001    -0.37690000
opls_236-318    O    0.58311027    0.20617995    0.35868998    -0.37390000
opls_236-319    O    0.82724994    0.78946991    0.75299006    -0.37890000
opls_236-320    O    0.58318049    0.93934007    0.50860007    -0.37780000
opls_236-321    O    0.82717972    0.05631007    0.60307006    -0.37690000
opls_236-322    O    0.58316948    0.84792998    0.30021003    -0.37880000
opls_236-323    O    0.82718936    0.14772997    0.81147001    -0.37690000
opls_236-324    O    0.82724994    0.28946991    0.85868998    -0.37090000
opls_236-325    O    0.58311027    0.70617995    0.25299006    -0.37900000
opls_236-326    O    0.82717972    0.55631007    0.00860007    -0.37690000
opls_236-327    O    0.58318049    0.43934007    0.10307006    -0.37690000
opls_236-328    O    0.82718936    0.64772997    0.80021003    -0.37280000
opls_236-329    O    0.58316948    0.34792998    0.31147001    -0.37390000
opls_236-330    O    0.82724994    0.78946991    0.35868998    -0.37080000
opls_236-331    O    0.58311027    0.20617995    0.75299006    -0.37900000
opls_236-332    O    0.82717972    0.05631007    0.50860007    -0.37690000
opls_236-333    O    0.58318049    0.93934007    0.60307006    -0.37690000
opls_236-334    O    0.82718936    0.14772997    0.30021003    -0.37290000
opls_236-335    O    0.58316948    0.84792998    0.81147001    -0.37390000
opls_236-336    O    0.47405954    0.29198996    0.13841003    -0.37090000
opls_236-337    O    0.22991986    0.70871008    0.74412002    -0.37090000
opls_236-338    O    0.47397968    0.55883012    0.98849994    -0.39090000
opls_236-339    O    0.22999009    0.44186993    0.89402995    -0.37690000
opls_236-340    O    0.47398931    0.65025002    0.19688998    -0.37880000
opls_236-341    O    0.22998045    0.35045003    0.68563000    -0.37690000
opls_236-342    O    0.47405954    0.79198996    0.63841003    -0.37090000
opls_236-343    O    0.22991986    0.20871008    0.24412002    -0.37090000
opls_236-344    O    0.47397968    0.05883012    0.48849994    -0.39090000
opls_236-345    O    0.22999009    0.94186993    0.39402995    -0.37690000
opls_236-346    O    0.47398931    0.15025002    0.69688998    -0.37880000
opls_236-347    O    0.22998045    0.85045003    0.18563000    -0.37680000
opls_236-348    O    0.22991986    0.70871008    0.13841003    -0.37090000
opls_236-349    O    0.47405954    0.29198996    0.74412002    -0.37090000
opls_236-350    O    0.22999009    0.44186993    0.98849994    -0.37690000
opls_236-351    O    0.47397968    0.55883012    0.89402995    -0.37290000
opls_236-352    O    0.22998045    0.35045003    0.19688998    -0.37290000
opls_236-353    O    0.47398931    0.65025002    0.68563000    -0.37390000
opls_236-354    O    0.22991986    0.20871008    0.63841003    -0.37090000
opls_236-355    O    0.47405954    0.79198996    0.24412002    -0.37090000
opls_236-356    O    0.22999009    0.94186993    0.48849994    -0.37690000
opls_236-357    O    0.47397968    0.05883012    0.39402995    -0.37290000
opls_236-358    O    0.22998045    0.85045003    0.69688998    -0.37290000
opls_236-359    O    0.47398931    0.15025002    0.18563000    -0.37390000
opls_146-360    H    0.82145985    0.59896996    0.89153995    0.11380000
opls_146-361    H    0.58890036    0.39667990    0.22013001    0.11380000
opls_144-362    H    0.82156037    0.44370001    0.93855005    0.11560000
opls_146-363    H    0.58879985    0.55195012    0.17312007    0.11560000
opls_146-364    H    0.82160030    0.45082008    0.83743005    0.11380000
opls_146-365    H    0.58875991    0.54483006    0.27424999    0.11830000
opls_146-366    H    0.81947979    0.65677004    0.87232998    0.11400000
opls_146-367    H    0.59088043    0.33888009    0.23933999    0.11400000
opls_144-368    H    0.81948942    0.44358993    0.97705999    0.11390000
opls_146-369    H    0.59086941    0.55205994    0.13460998    0.11390000
opls_146-370    H    0.81947979    0.39313990    0.81810995    0.11420000
opls_146-371    H    0.59088043    0.60252005    0.29356993    0.11350000
opls_146-372    H    0.70514017    0.55635994    0.90869006    0.11370000
opls_146-373    H    0.70522004    0.43928993    0.20298007    0.11370000
opls_146-374    H    0.58785939    0.78040013    0.83843001    0.11490000
opls_146-375    H    0.82249945    0.21525000    0.27325002    0.11490000
opls_702-376    H    0.58792961    0.43263992    0.05584002    0.14680000
opls_146-377    H    0.82145985    0.09896996    0.39153995    0.11380000
opls_146-378    H    0.58890036    0.89667990    0.72013001    0.11380000
opls_144-379    H    0.82156037    0.94370001    0.43855005    0.11560000
opls_146-380    H    0.58879985    0.05195012    0.67312007    0.11570000
opls_146-381    H    0.82160030    0.95082008    0.33743005    0.11380000
opls_146-382    H    0.58875991    0.04483006    0.77424999    0.11830000
opls_146-383    H    0.81947979    0.15677004    0.37232998    0.11400000
opls_146-384    H    0.59088043    0.83888009    0.73933999    0.11400000
opls_144-385    H    0.81948942    0.94358993    0.47705999    0.11390000
opls_146-386    H    0.59086941    0.05205994    0.63460998    0.11400000
opls_146-387    H    0.81947979    0.89313990    0.31810995    0.11410000
opls_146-388    H    0.59088043    0.10252005    0.79356993    0.11890000
opls_146-389    H    0.70514017    0.05635994    0.40869006    0.11370000
opls_146-390    H    0.70522004    0.93928993    0.70298007    0.11370000
opls_146-391    H    0.58785939    0.28040013    0.33843001    0.11490000
opls_146-392    H    0.82249945    0.71525000    0.77325002    0.11490000
opls_702-393    H    0.58792961    0.93263992    0.55584002    0.14680000
opls_146-394    H    0.58890036    0.39667990    0.89153995    0.11380000
opls_146-395    H    0.82145985    0.59896996    0.22013001    0.11380000
opls_702-396    H    0.58879985    0.55195012    0.93855005    0.08460000
opls_146-397    H    0.82156037    0.44370001    0.17312007    0.11560000
opls_146-398    H    0.58875991    0.54483006    0.83743005    0.11380000
opls_146-399    H    0.82160030    0.45082008    0.27424999    0.11830000
opls_146-400    H    0.59088043    0.33888009    0.87232998    0.11400000
opls_146-401    H    0.81947979    0.65677004    0.23933999    0.11400000
opls_144-402    H    0.59086941    0.55205994    0.97705999    0.19470000
opls_146-403    H    0.81948942    0.44358993    0.13460998    0.11390000
opls_146-404    H    0.59088043    0.60252005    0.81810995    0.11410000
opls_146-405    H    0.81947979    0.39313990    0.29356993    0.11340000
opls_146-406    H    0.70522004    0.43928993    0.90869006    0.11370000
opls_146-407    H    0.70514017    0.55635994    0.20298007    0.11370000
opls_146-408    H    0.82249945    0.21525000    0.83843001    0.11490000
opls_146-409    H    0.58785939    0.78040013    0.27325002    0.11490000
opls_144-410    H    0.82243060    0.56300994    0.05584002    0.11490000
opls_146-411    H    0.58890036    0.89667990    0.39153995    0.11380000
opls_146-412    H    0.82145985    0.09896996    0.72013001    0.11390000
opls_702-413    H    0.58879985    0.05195012    0.43855005    0.08460000
opls_146-414    H    0.82156037    0.94370001    0.67312007    0.11560000
opls_146-415    H    0.58875991    0.04483006    0.33743005    0.11380000
opls_146-416    H    0.82160030    0.95082008    0.77424999    0.11830000
opls_146-417    H    0.59088043    0.83888009    0.37232998    0.11400000
opls_146-418    H    0.81947979    0.15677004    0.73933999    0.11400000
opls_144-419    H    0.59086941    0.05205994    0.47705999    0.19470000
opls_146-420    H    0.81948942    0.94358993    0.63460998    0.11390000
opls_146-421    H    0.59088043    0.10252005    0.31810995    0.11410000
opls_146-422    H    0.81947979    0.89313990    0.79356993    0.11340000
opls_146-423    H    0.70522004    0.93928993    0.40869006    0.11370000
opls_146-424    H    0.70514017    0.05635994    0.70298007    0.11370000
opls_146-425    H    0.82249945    0.71525000    0.33843001    0.11490000
opls_146-426    H    0.58785939    0.28040013    0.77325002    0.11490000
opls_144-427    H    0.82243060    0.06300994    0.55584002    0.11490000
opls_146-428    H    0.23570032    0.39919995    0.10556006    0.11830000
opls_146-429    H    0.46826944    0.60150009    0.77697000    0.11380000
opls_144-430    H    0.23560944    0.55446990    0.05854996    0.11830000
opls_146-431    H    0.46836032    0.44622987    0.82397994    0.11560000
opls_146-432    H    0.23556951    0.54735011    0.15966996    0.11830000
opls_146-433    H    0.46840025    0.45334994    0.72285002    0.11560000
opls_146-434    H    0.23769002    0.34140995    0.12477003    0.11400000
opls_146-435    H    0.46628938    0.65929990    0.75776002    0.11390000
opls_144-436    H    0.23768038    0.55457999    0.02004002    0.11410000
opls_146-437    H    0.46630040    0.44612006    0.86249003    0.11400000
opls_146-438    H    0.23769002    0.60504010    0.17899006    0.11410000
opls_146-439    H    0.46627974    0.39565995    0.70352992    0.11340000
opls_146-440    H    0.35201999    0.44182006    0.08840995    0.11370000
opls_146-441    H    0.35194977    0.55887998    0.79411994    0.11420000
opls_146-442    H    0.46931042    0.21778013    0.15867000    0.11500000
opls_146-443    H    0.23465934    0.78292999    0.72386006    0.11580000
opls_702-444    H    0.46923056    0.56552999    0.94125999    0.13370000
opls_146-445    H    0.23570032    0.89919995    0.60556006    0.11830000
opls_146-446    H    0.46826944    0.10150009    0.27697000    0.11380000
opls_144-447    H    0.23560944    0.05446990    0.55854996    0.11830000
opls_146-448    H    0.46836032    0.94622987    0.32397994    0.11560000
opls_146-449    H    0.23556951    0.04735011    0.65966996    0.11830000
opls_146-450    H    0.46840025    0.95334994    0.22285002    0.11560000
opls_146-451    H    0.23769002    0.84140995    0.62477003    0.11400000
opls_146-452    H    0.46628938    0.15929990    0.25776002    0.11390000
opls_144-453    H    0.23768038    0.05457999    0.52004002    0.11410000
opls_146-454    H    0.46630040    0.94612006    0.36249003    0.11400000
opls_146-455    H    0.23769002    0.10504010    0.67899006    0.11410000
opls_146-456    H    0.46627974    0.89565995    0.20352992    0.11340000
opls_146-457    H    0.35201999    0.94182006    0.58840995    0.11370000
opls_146-458    H    0.35194977    0.05887998    0.29411994    0.11420000
opls_146-459    H    0.46931042    0.71778013    0.65867000    0.11500000
opls_146-460    H    0.23465934    0.28292999    0.22386006    0.11580000
opls_702-461    H    0.46923056    0.06552999    0.44125999    0.13370000
opls_146-462    H    0.46826944    0.60150009    0.10556006    0.11380000
opls_146-463    H    0.23570032    0.39919995    0.77697000    0.11830000
opls_702-464    H    0.46836032    0.44622987    0.05854996    0.08460000
opls_146-465    H    0.23560944    0.55446990    0.82397994    0.11830000
opls_146-466    H    0.46840025    0.45334994    0.15966996    0.11830000
opls_146-467    H    0.23556951    0.54735011    0.72285002    0.11560000
opls_146-468    H    0.46628938    0.65929990    0.12477003    0.11390000
opls_146-469    H    0.23769002    0.34140995    0.75776002    0.11400000
opls_144-470    H    0.46630040    0.44612006    0.02004002    0.19470000
opls_146-471    H    0.23768038    0.55457999    0.86249003    0.11410000
opls_146-472    H    0.46627974    0.39565995    0.17899006    0.11410000
opls_146-473    H    0.23769002    0.60504010    0.70352992    0.11340000
opls_146-474    H    0.35194977    0.55887998    0.08840995    0.11420000
opls_146-475    H    0.35201999    0.44182006    0.79411994    0.11370000
opls_146-476    H    0.23465934    0.78292999    0.15867000    0.11580000
opls_146-477    H    0.46931042    0.21778013    0.72386006    0.11490000
opls_144-478    H    0.23474058    0.43517005    0.94125999    0.11490000
opls_146-479    H    0.46826944    0.10150009    0.60556006    0.11380000
opls_146-480    H    0.23570032    0.89919995    0.27697000    0.11830000
opls_702-481    H    0.46836032    0.94622987    0.55854996    0.08460000
opls_146-482    H    0.23560944    0.05446990    0.32397994    0.11830000
opls_146-483    H    0.46840025    0.95334994    0.65966996    0.11830000
opls_146-484    H    0.23556951    0.04735011    0.22285002    0.11560000
opls_146-485    H    0.46628938    0.15929990    0.62477003    0.11390000
opls_146-486    H    0.23769002    0.84140995    0.25776002    0.11410000
opls_144-487    H    0.46630040    0.94612006    0.52004002    0.19470000
opls_146-488    H    0.23768038    0.05457999    0.36249003    0.11410000
opls_146-489    H    0.46627974    0.89565995    0.67899006    0.11410000
opls_146-490    H    0.23769002    0.10504010    0.20352992    0.11340000
opls_146-491    H    0.35194977    0.05887998    0.58840995    0.11420000
opls_146-492    H    0.35201999    0.94182006    0.29411994    0.11370000
opls_146-493    H    0.23465934    0.28292999    0.65867000    0.11580000
opls_146-494    H    0.46931042    0.71778013    0.22386006    0.11490000
opls_144-495    H    0.23474058    0.93517005    0.44125999    0.11490000
opls_146-496    H    0.70518011    0.49783011    0.85015001    0.11380000
opls_146-497    H    0.70518011    0.49783011    0.26151996    0.11420000
opls_146-498    H    0.70518011    0.99783011    0.35015001    0.11380000
opls_146-499    H    0.70518011    0.99783011    0.76151996    0.11420000
opls_146-500    H    0.35198970    0.50034989    0.14695000    0.11380000
opls_146-501    H    0.35198970    0.50034989    0.73558005    0.11420000
opls_146-502    H    0.35198970    0.00034989    0.64695000    0.11380000
opls_146-503    H    0.35198970    0.00034989    0.23558005    0.11420000
opls_542-504    N    0.70519938    0.66743992    0.83261996    -0.19700000
opls_542-505    N    0.70514981    0.32820994    0.27905000    -0.20150000
opls_542-506    N    0.70519938    0.16743992    0.33261996    -0.19700000
opls_542-507    N    0.70514981    0.82820994    0.77905000    -0.20150000
opls_542-508    N    0.70514981    0.32820994    0.83261996    -0.20150000
opls_542-509    N    0.70519938    0.66743992    0.27905000    -0.19700000
opls_542-510    N    0.70514981    0.82820994    0.33261996    -0.20150000
opls_542-511    N    0.70519938    0.16743992    0.77905000    -0.19690000
opls_542-512    N    0.35195941    0.33072999    0.16448005    -0.20150000
opls_542-513    N    0.35201035    0.66997005    0.71805001    -0.20150000
opls_542-514    N    0.35195941    0.83072999    0.66448005    -0.20150000
opls_542-515    N    0.35201035    0.16997005    0.21805001    -0.20150000
opls_542-516    N    0.35201035    0.66997005    0.16448005    -0.20150000
opls_542-517    N    0.35195941    0.33072999    0.71805001    -0.20150000
opls_542-518    N    0.35201035    0.16997005    0.66448005    -0.20140000
opls_542-519    N    0.35195941    0.83072999    0.21805001    -0.20150000
opls_542-520    N    0.70518011    0.49783011    0.00225999    -0.20530000
opls_542-521    N    0.70518011    0.49783011    0.10940998    -0.20530000
opls_542-522    N    0.70518011    0.99783011    0.50225999    -0.20530000
opls_542-523    N    0.70518011    0.99783011    0.60940998    -0.20530000
opls_542-524    N    0.35198970    0.50034989    0.99484002    -0.20150000
opls_542-525    N    0.35198970    0.50034989    0.88769003    -0.20150000
opls_542-526    N    0.35198970    0.00034989    0.49484002    -0.20150000
opls_542-527    N    0.35198970    0.00034989    0.38769003    -0.20150000
