#======================================================================
# Crystal Data Generated By AuToFF
#----------------------------------------------------------------------

data_AuToFF_phase_1

_cell_length_a                         6.9100
_cell_length_b                         45.2700
_cell_length_c                         42.6600
_cell_angle_alpha                      90.00
_cell_angle_beta                       90.00
_cell_angle_gamma                      90.00
_symmetry_space_group_name_H-M_alt     'P 1'
_symmetry_space_group_IT_number        1

loop_
_space_group_symop_operation_xyz
   'x, y, z'

loop_
   _atom_site_label
   _atom_site_type_symbol
   _atom_site_fract_x
   _atom_site_fract_y
   _atom_site_fract_z
   _atom_site_charge
opls_557-0    N    0.75000000    0.27844003    0.26804993    -0.27880000
opls_559-1    N    0.75000000    0.28377005    0.21493999    -0.30740000
opls_559-2    N    0.75000000    0.22333996    0.69878997    -0.30740000
opls_557-3    N    0.75000000    0.21802010    0.75190999    -0.27690000
opls_750-4    N    0.75000000    0.06240004    0.73601992    -0.22420000
opls_750-5    N    0.75000000    0.43737994    0.27990999    -0.26640000
opls_750-6    N    0.75000000    0.25955997    0.54883005    -0.22420000
opls_750-7    N    0.75000000    0.23296002    0.04701992    -0.22660000
opls_750-8    N    0.75000000    0.26876011    0.91977004    -0.22660000
opls_750-9    N    0.75000000    0.24247007    0.41786006    -0.22420000
opls_557-10    N    0.75000000    0.72155997    0.26804993    -0.27880000
opls_559-11    N    0.75000000    0.71622995    0.21493999    -0.30740000
opls_559-12    N    0.75000000    0.77666004    0.69878997    -0.30730000
opls_557-13    N    0.75000000    0.78197990    0.75190999    -0.27700000
opls_750-14    N    0.75000000    0.93759996    0.73601992    -0.22420000
opls_750-15    N    0.75000000    0.56262006    0.27990999    -0.26640000
opls_750-16    N    0.75000000    0.74044003    0.54883005    -0.22420000
opls_750-17    N    0.75000000    0.76703998    0.04701992    -0.22650000
opls_750-18    N    0.75000000    0.73123989    0.91977004    -0.22660000
opls_750-19    N    0.75000000    0.75752993    0.41786006    -0.22420000
opls_557-20    N    0.25000000    0.27844003    0.73195007    -0.27880000
opls_559-21    N    0.25000000    0.28377005    0.78506001    -0.30740000
opls_559-22    N    0.25000000    0.22333996    0.30121003    -0.30740000
opls_557-23    N    0.25000000    0.21802010    0.24809001    -0.27700000
opls_750-24    N    0.25000000    0.06240004    0.26398008    -0.22420000
opls_750-25    N    0.25000000    0.43737994    0.72009001    -0.26640000
opls_750-26    N    0.25000000    0.25955997    0.45116995    -0.22420000
opls_750-27    N    0.25000000    0.23296002    0.95298008    -0.22660000
opls_750-28    N    0.25000000    0.26876011    0.08022996    -0.22660000
opls_750-29    N    0.25000000    0.24247007    0.58213994    -0.22410000
opls_557-30    N    0.25000000    0.72155997    0.73195007    -0.27880000
opls_559-31    N    0.25000000    0.71622995    0.78506001    -0.30740000
opls_559-32    N    0.25000000    0.77666004    0.30121003    -0.30740000
opls_557-33    N    0.25000000    0.78197990    0.24809001    -0.27710000
opls_750-34    N    0.25000000    0.93759996    0.26398008    -0.22420000
opls_750-35    N    0.25000000    0.56262006    0.72009001    -0.26640000
opls_750-36    N    0.25000000    0.74044003    0.45116995    -0.22420000
opls_750-37    N    0.25000000    0.76703998    0.95298008    -0.22660000
opls_750-38    N    0.25000000    0.73123989    0.08022996    -0.22660000
opls_750-39    N    0.25000000    0.75752993    0.58213994    -0.22420000
opls_624-40    C    0.75000000    0.25004992    0.25389006    0.12820000
opls_700-41    C    0.75000000    0.22232008    0.26848008    0.00160000
opls_145-42    C    0.75000000    0.19740998    0.24851992    -0.07410000
opls_624-43    C    0.75000000    0.25326000    0.22231997    0.09850000
opls_700-44    C    0.75000000    0.22921007    0.20169995    0.00140000
opls_145-45    C    0.75000000    0.20081997    0.21548992    -0.07440000
opls_627-46    C    0.75000000    0.29708991    0.24330005    0.34540000
opls_624-47    C    0.75000000    0.25173006    0.71295007    0.09880000
opls_700-48    C    0.75000000    0.27944997    0.69833990    0.00020000
opls_624-49    C    0.75000000    0.24852993    0.74451992    0.12830000
opls_145-50    C    0.75000000    0.30097990    0.75133990    -0.07410000
opls_145-51    C    0.75000000    0.03092004    0.73504008    0.25050000
opls_627-52    C    0.75000000    0.20470002    0.72354993    0.34540000
opls_700-53    C    0.75000000    0.27259996    0.76513010    0.00110000
opls_145-54    C    0.75000000    0.30437000    0.71830989    -0.07440000
opls_700-55    C    0.75000000    0.21969008    0.30318003    0.07770000
opls_700-56    C    0.75000000    0.28207996    0.66360994    0.07760000
opls_142-57    C    0.75000000    0.28470002    0.56339991    0.10410000
opls_700-58    C    0.75000000    0.26807002    0.79965002    0.07940000
opls_700-59    C    0.75000000    0.23374000    0.16716995    0.08110000
opls_700-60    C    0.75000000    0.17256991    0.72013010    0.01590000
opls_700-61    C    0.75000000    0.32922001    0.24671003    0.01600000
opls_145-62    C    0.75000000    0.34234990    0.27647000    -0.07020000
opls_145-63    C    0.75000000    0.37310007    0.27927989    -0.08760000
opls_700-64    C    0.75000000    0.39070996    0.25227004    0.05570000
opls_145-65    C    0.75000000    0.37759002    0.22268003    -0.10240000
opls_145-66    C    0.75000000    0.34696996    0.21989006    -0.08650000
opls_142-67    C    0.75000000    0.42282991    0.25377004    0.13250000
opls_145-68    C    0.75000000    0.25577005    0.51571003    0.24520000
opls_145-69    C    0.75000000    0.22700000    0.50378997    -0.10440000
opls_145-70    C    0.75000000    0.22218997    0.47151992    -0.10450000
opls_145-71    C    0.75000000    0.24630992    0.45097000    0.24520000
opls_145-72    C    0.75000000    0.27508991    0.46289006    -0.10450000
opls_145-73    C    0.75000000    0.27989993    0.49516995    -0.10450000
opls_145-74    C    0.75000000    0.24215993    0.01495007    0.24570000
opls_145-75    C    0.75000000    0.22081003    0.99139991    -0.10220000
opls_145-76    C    0.75000000    0.22940998    0.96001992    -0.12600000
opls_145-77    C    0.75000000    0.25955003    0.95183005    0.24560000
opls_145-78    C    0.75000000    0.28088999    0.97537998    -0.10220000
opls_145-79    C    0.75000000    0.27229004    0.00675996    -0.12600000
opls_700-80    C    0.75000000    0.24460990    0.10234998    0.08400000
opls_145-81    C    0.75000000    0.15480009    0.74692991    -0.10270000
opls_145-82    C    0.75000000    0.12418997    0.74407993    -0.08620000
opls_700-83    C    0.75000000    0.11104992    0.71436006    0.06970000
opls_145-84    C    0.75000000    0.12873006    0.68751008    -0.08630000
opls_145-85    C    0.75000000    0.15947007    0.69036990    -0.08760000
opls_142-86    C    0.75000000    0.07892998    0.71125996    0.01730000
opls_145-87    C    0.75000000    0.21000994    0.14590999    -0.07590000
opls_145-88    C    0.75000000    0.21541992    0.11348992    -0.07220000
opls_145-89    C    0.75000000    0.26800994    0.12330005    -0.10010000
opls_145-90    C    0.75000000    0.26256991    0.15519011    -0.07180000
opls_145-91    C    0.75000000    0.29180009    0.82089991    -0.07590000
opls_145-92    C    0.75000000    0.28637000    0.85331997    -0.07590000
opls_700-93    C    0.75000000    0.25715993    0.86443999    0.08690000
opls_145-94    C    0.75000000    0.23377999    0.84348992    -0.10100000
opls_145-95    C    0.75000000    0.23923989    0.81160994    -0.07910000
opls_142-96    C    0.75000000    0.24943009    0.89751992    0.03630000
opls_142-97    C    0.75000000    0.25230992    0.06925996    0.04070000
opls_145-98    C    0.75000000    0.19225006    0.31863994    -0.07440000
opls_145-99    C    0.75000000    0.19107002    0.35159001    -0.07590000
opls_700-100    C    0.75000000    0.21732008    0.36906001    0.07670000
opls_145-101    C    0.75000000    0.24440998    0.35357993    -0.10420000
opls_145-102    C    0.75000000    0.24544997    0.32128997    -0.08250000
opls_142-103    C    0.75000000    0.21729004    0.40336006    0.10410000
opls_145-104    C    0.75000000    0.30952993    0.64816995    -0.07440000
opls_145-105    C    0.75000000    0.31076011    0.61522996    -0.07220000
opls_700-106    C    0.75000000    0.28455003    0.59769995    0.07850000
opls_145-107    C    0.75000000    0.25743009    0.61313994    -0.12030000
opls_145-108    C    0.75000000    0.25633996    0.64545992    -0.09820000
opls_145-109    C    0.75000000    0.46899006    0.27983990    0.23640000
opls_145-110    C    0.75000000    0.48451999    0.30822996    -0.12600000
opls_145-111    C    0.75000000    0.48467992    0.25148992    -0.10440000
opls_145-112    C    0.75000000    0.01540998    0.70654008    -0.12620000
opls_145-113    C    0.75000000    0.01539010    0.76331997    -0.10440000
opls_624-114    C    0.75000000    0.74995008    0.25389006    0.12820000
opls_700-115    C    0.75000000    0.77767992    0.26848008    0.00160000
opls_145-116    C    0.75000000    0.80259002    0.24851992    -0.07410000
opls_624-117    C    0.75000000    0.74674000    0.22231997    0.09850000
opls_700-118    C    0.75000000    0.77078993    0.20169995    0.00140000
opls_145-119    C    0.75000000    0.79918003    0.21548992    -0.07440000
opls_627-120    C    0.75000000    0.70291009    0.24330005    0.34540000
opls_624-121    C    0.75000000    0.74826994    0.71295007    0.09880000
opls_700-122    C    0.75000000    0.72055003    0.69833990    0.00020000
opls_624-123    C    0.75000000    0.75147007    0.74451992    0.12830000
opls_145-124    C    0.75000000    0.69902010    0.75133990    -0.07410000
opls_145-125    C    0.75000000    0.96907996    0.73504008    0.25060000
opls_627-126    C    0.75000000    0.79529998    0.72354993    0.34540000
opls_700-127    C    0.75000000    0.72740004    0.76513010    0.00110000
opls_145-128    C    0.75000000    0.69563000    0.71830989    -0.07440000
opls_700-129    C    0.75000000    0.78030992    0.30318003    0.07770000
opls_700-130    C    0.75000000    0.71792004    0.66360994    0.07760000
opls_142-131    C    0.75000000    0.71529998    0.56339991    0.10410000
opls_700-132    C    0.75000000    0.73192998    0.79965002    0.07940000
opls_700-133    C    0.75000000    0.76626000    0.16716995    0.08110000
opls_700-134    C    0.75000000    0.82743009    0.72013010    0.01590000
opls_700-135    C    0.75000000    0.67077999    0.24671003    0.01600000
opls_145-136    C    0.75000000    0.65765010    0.27647000    -0.07020000
opls_145-137    C    0.75000000    0.62689993    0.27927989    -0.08750000
opls_700-138    C    0.75000000    0.60929004    0.25227004    0.05570000
opls_145-139    C    0.75000000    0.62240998    0.22268003    -0.10240000
opls_145-140    C    0.75000000    0.65303004    0.21989006    -0.08650000
opls_142-141    C    0.75000000    0.57717009    0.25377004    0.13250000
opls_145-142    C    0.75000000    0.74422995    0.51571003    0.24520000
opls_145-143    C    0.75000000    0.77300000    0.50378997    -0.10440000
opls_145-144    C    0.75000000    0.77781003    0.47151992    -0.10450000
opls_145-145    C    0.75000000    0.75369008    0.45097000    0.24520000
opls_145-146    C    0.75000000    0.72491009    0.46289006    -0.10450000
opls_145-147    C    0.75000000    0.72010007    0.49516995    -0.10450000
opls_145-148    C    0.75000000    0.75784007    0.01495007    0.24560000
opls_145-149    C    0.75000000    0.77918997    0.99139991    -0.10210000
opls_145-150    C    0.75000000    0.77059002    0.96001992    -0.12600000
opls_145-151    C    0.75000000    0.74044997    0.95183005    0.24560000
opls_145-152    C    0.75000000    0.71911001    0.97537998    -0.10210000
opls_145-153    C    0.75000000    0.72770996    0.00675996    -0.12600000
opls_700-154    C    0.75000000    0.75539010    0.10234998    0.08400000
opls_145-155    C    0.75000000    0.84519991    0.74692991    -0.10270000
opls_145-156    C    0.75000000    0.87581003    0.74407993    -0.08620000
opls_700-157    C    0.75000000    0.88895008    0.71436006    0.06970000
opls_145-158    C    0.75000000    0.87126994    0.68751008    -0.08630000
opls_145-159    C    0.75000000    0.84052993    0.69036990    -0.08760000
opls_142-160    C    0.75000000    0.92107002    0.71125996    0.01730000
opls_145-161    C    0.75000000    0.78999006    0.14590999    -0.07570000
opls_145-162    C    0.75000000    0.78458008    0.11348992    -0.07220000
opls_145-163    C    0.75000000    0.73199006    0.12330005    -0.10010000
opls_145-164    C    0.75000000    0.73743009    0.15519011    -0.07180000
opls_145-165    C    0.75000000    0.70819991    0.82089991    -0.07590000
opls_145-166    C    0.75000000    0.71363000    0.85331997    -0.07590000
opls_700-167    C    0.75000000    0.74284007    0.86443999    0.08690000
opls_145-168    C    0.75000000    0.76622001    0.84348992    -0.10100000
opls_145-169    C    0.75000000    0.76076011    0.81160994    -0.07910000
opls_142-170    C    0.75000000    0.75056991    0.89751992    0.03630000
opls_142-171    C    0.75000000    0.74769008    0.06925996    0.04070000
opls_145-172    C    0.75000000    0.80774994    0.31863994    -0.07440000
opls_145-173    C    0.75000000    0.80892998    0.35159001    -0.07590000
opls_700-174    C    0.75000000    0.78267992    0.36906001    0.07680000
opls_145-175    C    0.75000000    0.75559002    0.35357993    -0.10420000
opls_145-176    C    0.75000000    0.75455003    0.32128997    -0.08250000
opls_142-177    C    0.75000000    0.78270996    0.40336006    0.10420000
opls_145-178    C    0.75000000    0.69047007    0.64816995    -0.07440000
opls_145-179    C    0.75000000    0.68923989    0.61522996    -0.07220000
opls_700-180    C    0.75000000    0.71544997    0.59769995    0.07850000
opls_145-181    C    0.75000000    0.74256991    0.61313994    -0.12030000
opls_145-182    C    0.75000000    0.74366004    0.64545992    -0.09820000
opls_145-183    C    0.75000000    0.53100994    0.27983990    0.23640000
opls_145-184    C    0.75000000    0.51548001    0.30822996    -0.12600000
opls_145-185    C    0.75000000    0.51532008    0.25148992    -0.10440000
opls_145-186    C    0.75000000    0.98459002    0.70654008    -0.12620000
opls_145-187    C    0.75000000    0.98460990    0.76331997    -0.10440000
opls_624-188    C    0.25000000    0.25004992    0.74610994    0.12820000
opls_700-189    C    0.25000000    0.22232008    0.73151992    0.00160000
opls_145-190    C    0.25000000    0.19740998    0.75148008    -0.07410000
opls_624-191    C    0.25000000    0.25326000    0.77768003    0.09850000
opls_700-192    C    0.25000000    0.22921007    0.79830005    0.00140000
opls_145-193    C    0.25000000    0.20081997    0.78451008    -0.07440000
opls_627-194    C    0.25000000    0.29708991    0.75669995    0.34540000
opls_624-195    C    0.25000000    0.25173006    0.28704993    0.09880000
opls_700-196    C    0.25000000    0.27944997    0.30166010    0.00020000
opls_624-197    C    0.25000000    0.24852993    0.25548008    0.12830000
opls_145-198    C    0.25000000    0.30097990    0.24866010    -0.07410000
opls_145-199    C    0.25000000    0.03092004    0.26495992    0.25050000
opls_627-200    C    0.25000000    0.20470002    0.27645007    0.34540000
opls_700-201    C    0.25000000    0.27259996    0.23486990    0.00110000
opls_145-202    C    0.25000000    0.30437000    0.28169011    -0.07440000
opls_700-203    C    0.25000000    0.21969008    0.69681997    0.07770000
opls_700-204    C    0.25000000    0.28207996    0.33639006    0.07760000
opls_142-205    C    0.25000000    0.28470002    0.43660009    0.10410000
opls_700-206    C    0.25000000    0.26807002    0.20034998    0.07950000
opls_700-207    C    0.25000000    0.23374000    0.83283005    0.08110000
opls_700-208    C    0.25000000    0.17256991    0.27986990    0.01590000
opls_700-209    C    0.25000000    0.32922001    0.75328997    0.01600000
opls_145-210    C    0.25000000    0.34234990    0.72353000    -0.07020000
opls_145-211    C    0.25000000    0.37310007    0.72072011    -0.08760000
opls_700-212    C    0.25000000    0.39070996    0.74772996    0.05570000
opls_145-213    C    0.25000000    0.37759002    0.77731997    -0.10230000
opls_145-214    C    0.25000000    0.34696996    0.78010994    -0.08650000
opls_142-215    C    0.25000000    0.42282991    0.74622996    0.13250000
opls_145-216    C    0.25000000    0.25577005    0.48428997    0.24520000
opls_145-217    C    0.25000000    0.22700000    0.49621003    -0.10440000
opls_145-218    C    0.25000000    0.22218997    0.52848008    -0.10450000
opls_145-219    C    0.25000000    0.24630992    0.54903000    0.24530000
opls_145-220    C    0.25000000    0.27508991    0.53710994    -0.10440000
opls_145-221    C    0.25000000    0.27989993    0.50483005    -0.10450000
opls_145-222    C    0.25000000    0.24215993    0.98504993    0.24560000
opls_145-223    C    0.25000000    0.22081003    0.00860009    -0.10220000
opls_145-224    C    0.25000000    0.22940998    0.03998008    -0.12600000
opls_145-225    C    0.25000000    0.25955003    0.04816995    0.24560000
opls_145-226    C    0.25000000    0.28088999    0.02462002    -0.10220000
opls_145-227    C    0.25000000    0.27229004    0.99324004    -0.12580000
opls_700-228    C    0.25000000    0.24460990    0.89765002    0.08400000
opls_145-229    C    0.25000000    0.15480009    0.25307009    -0.10270000
opls_145-230    C    0.25000000    0.12418997    0.25592007    -0.08620000
opls_700-231    C    0.25000000    0.11104992    0.28563994    0.06970000
opls_145-232    C    0.25000000    0.12873006    0.31248992    -0.08630000
opls_145-233    C    0.25000000    0.15947007    0.30963010    -0.08760000
opls_142-234    C    0.25000000    0.07892998    0.28874004    0.01730000
opls_145-235    C    0.25000000    0.21000994    0.85409001    -0.07590000
opls_145-236    C    0.25000000    0.21541992    0.88651008    -0.07220000
opls_145-237    C    0.25000000    0.26800994    0.87669995    -0.10010000
opls_145-238    C    0.25000000    0.26256991    0.84480989    -0.07180000
opls_145-239    C    0.25000000    0.29180009    0.17910009    -0.07590000
opls_145-240    C    0.25000000    0.28637000    0.14668003    -0.07590000
opls_700-241    C    0.25000000    0.25715993    0.13556001    0.08690000
opls_145-242    C    0.25000000    0.23377999    0.15651008    -0.10100000
opls_145-243    C    0.25000000    0.23923989    0.18839006    -0.07910000
opls_142-244    C    0.25000000    0.24943009    0.10248008    0.03630000
opls_142-245    C    0.25000000    0.25230992    0.93074004    0.04070000
opls_145-246    C    0.25000000    0.19225006    0.68136006    -0.07440000
opls_145-247    C    0.25000000    0.19107002    0.64840999    -0.07590000
opls_700-248    C    0.25000000    0.21732008    0.63093999    0.07670000
opls_145-249    C    0.25000000    0.24440998    0.64642007    -0.10420000
opls_145-250    C    0.25000000    0.24544997    0.67871003    -0.08240000
opls_142-251    C    0.25000000    0.21729004    0.59663994    0.10410000
opls_145-252    C    0.25000000    0.30952993    0.35183005    -0.07440000
opls_145-253    C    0.25000000    0.31076011    0.38477004    -0.07220000
opls_700-254    C    0.25000000    0.28455003    0.40230005    0.07850000
opls_145-255    C    0.25000000    0.25743009    0.38686006    -0.12020000
opls_145-256    C    0.25000000    0.25633996    0.35454008    -0.09820000
opls_145-257    C    0.25000000    0.46899006    0.72016010    0.23660000
opls_145-258    C    0.25000000    0.48451999    0.69177004    -0.12600000
opls_145-259    C    0.25000000    0.48467992    0.74851008    -0.10440000
opls_145-260    C    0.25000000    0.01540998    0.29345992    -0.12620000
opls_145-261    C    0.25000000    0.01539010    0.23668003    -0.10440000
opls_624-262    C    0.25000000    0.74995008    0.74610994    0.12820000
opls_700-263    C    0.25000000    0.77767992    0.73151992    0.00160000
opls_145-264    C    0.25000000    0.80259002    0.75148008    -0.07410000
opls_624-265    C    0.25000000    0.74674000    0.77768003    0.09850000
opls_700-266    C    0.25000000    0.77078993    0.79830005    0.00140000
opls_145-267    C    0.25000000    0.79918003    0.78451008    -0.07440000
opls_627-268    C    0.25000000    0.70291009    0.75669995    0.34550000
opls_624-269    C    0.25000000    0.74826994    0.28704993    0.09880000
opls_700-270    C    0.25000000    0.72055003    0.30166010    0.00020000
opls_624-271    C    0.25000000    0.75147007    0.25548008    0.12830000
opls_145-272    C    0.25000000    0.69902010    0.24866010    -0.07400000
opls_145-273    C    0.25000000    0.96907996    0.26495992    0.25050000
opls_627-274    C    0.25000000    0.79529998    0.27645007    0.34540000
opls_700-275    C    0.25000000    0.72740004    0.23486990    0.00110000
opls_145-276    C    0.25000000    0.69563000    0.28169011    -0.07440000
opls_700-277    C    0.25000000    0.78030992    0.69681997    0.07770000
opls_700-278    C    0.25000000    0.71792004    0.33639006    0.07760000
opls_142-279    C    0.25000000    0.71529998    0.43660009    0.10410000
opls_700-280    C    0.25000000    0.73192998    0.20034998    0.07940000
opls_700-281    C    0.25000000    0.76626000    0.83283005    0.08110000
opls_700-282    C    0.25000000    0.82743009    0.27986990    0.01590000
opls_700-283    C    0.25000000    0.67077999    0.75328997    0.01600000
opls_145-284    C    0.25000000    0.65765010    0.72353000    -0.07020000
opls_145-285    C    0.25000000    0.62689993    0.72072011    -0.08760000
opls_700-286    C    0.25000000    0.60929004    0.74772996    0.05570000
opls_145-287    C    0.25000000    0.62240998    0.77731997    -0.10240000
opls_145-288    C    0.25000000    0.65303004    0.78010994    -0.08650000
opls_142-289    C    0.25000000    0.57717009    0.74622996    0.13250000
opls_145-290    C    0.25000000    0.74422995    0.48428997    0.24530000
opls_145-291    C    0.25000000    0.77300000    0.49621003    -0.10440000
opls_145-292    C    0.25000000    0.77781003    0.52848008    -0.10450000
opls_145-293    C    0.25000000    0.75369008    0.54903000    0.24520000
opls_145-294    C    0.25000000    0.72491009    0.53710994    -0.10450000
opls_145-295    C    0.25000000    0.72010007    0.50483005    -0.10450000
opls_145-296    C    0.25000000    0.75784007    0.98504993    0.24570000
opls_145-297    C    0.25000000    0.77918997    0.00860009    -0.10220000
opls_145-298    C    0.25000000    0.77059002    0.03998008    -0.12600000
opls_145-299    C    0.25000000    0.74044997    0.04816995    0.24560000
opls_145-300    C    0.25000000    0.71911001    0.02462002    -0.10220000
opls_145-301    C    0.25000000    0.72770996    0.99324004    -0.12600000
opls_700-302    C    0.25000000    0.75539010    0.89765002    0.08410000
opls_145-303    C    0.25000000    0.84519991    0.25307009    -0.10270000
opls_145-304    C    0.25000000    0.87581003    0.25592007    -0.08620000
opls_700-305    C    0.25000000    0.88895008    0.28563994    0.06970000
opls_145-306    C    0.25000000    0.87126994    0.31248992    -0.08630000
opls_145-307    C    0.25000000    0.84052993    0.30963010    -0.08760000
opls_142-308    C    0.25000000    0.92107002    0.28874004    0.01730000
opls_145-309    C    0.25000000    0.78999006    0.85409001    -0.07590000
opls_145-310    C    0.25000000    0.78458008    0.88651008    -0.07220000
opls_145-311    C    0.25000000    0.73199006    0.87669995    -0.10010000
opls_145-312    C    0.25000000    0.73743009    0.84480989    -0.07180000
opls_145-313    C    0.25000000    0.70819991    0.17910009    -0.07590000
opls_145-314    C    0.25000000    0.71363000    0.14668003    -0.07590000
opls_700-315    C    0.25000000    0.74284007    0.13556001    0.08690000
opls_145-316    C    0.25000000    0.76622001    0.15651008    -0.10100000
opls_145-317    C    0.25000000    0.76076011    0.18839006    -0.07910000
opls_142-318    C    0.25000000    0.75056991    0.10248008    0.03630000
opls_142-319    C    0.25000000    0.74769008    0.93074004    0.04070000
opls_145-320    C    0.25000000    0.80774994    0.68136006    -0.07440000
opls_145-321    C    0.25000000    0.80892998    0.64840999    -0.07590000
opls_700-322    C    0.25000000    0.78267992    0.63093999    0.07670000
opls_145-323    C    0.25000000    0.75559002    0.64642007    -0.10420000
opls_145-324    C    0.25000000    0.75455003    0.67871003    -0.08250000
opls_142-325    C    0.25000000    0.78270996    0.59663994    0.10410000
opls_145-326    C    0.25000000    0.69047007    0.35183005    -0.07440000
opls_145-327    C    0.25000000    0.68923989    0.38477004    -0.07220000
opls_700-328    C    0.25000000    0.71544997    0.40230005    0.07850000
opls_145-329    C    0.25000000    0.74256991    0.38686006    -0.12030000
opls_145-330    C    0.25000000    0.74366004    0.35454008    -0.09820000
opls_145-331    C    0.25000000    0.53100994    0.72016010    0.23640000
opls_145-332    C    0.25000000    0.51548001    0.69177004    -0.12600000
opls_145-333    C    0.25000000    0.51532008    0.74851008    -0.10440000
opls_145-334    C    0.25000000    0.98459002    0.29345992    -0.12620000
opls_145-335    C    0.25000000    0.98460990    0.23668003    -0.10440000
opls_562-336    H    0.75000000    0.28050011    0.29398008    0.27300000
opls_562-337    H    0.75000000    0.21078993    0.77677004    0.27320000
opls_146-338    H    0.75000000    0.17422001    0.25892991    0.05190000
opls_146-339    H    0.75000000    0.18051005    0.19968003    0.05130000
opls_146-340    H    0.75000000    0.32151005    0.76681997    0.05190000
opls_146-341    H    0.75000000    0.32755997    0.70789006    0.05190000
opls_144-342    H    0.75000000    0.30619991    0.54948992    0.03060000
opls_146-343    H    0.75000000    0.32793992    0.29839006    0.05190000
opls_146-344    H    0.75000000    0.38377999    0.30348008    0.05190000
opls_146-345    H    0.75000000    0.39196002    0.20074004    0.05190000
opls_146-346    H    0.75000000    0.33636006    0.19565002    0.05190000
opls_144-347    H    0.75000000    0.43519991    0.23048992    0.03060000
opls_146-348    H    0.75000000    0.20733996    0.52048008    0.05200000
opls_146-349    H    0.75000000    0.19869008    0.46192991    0.05190000
opls_146-350    H    0.75000000    0.29474994    0.44619011    0.05190000
opls_146-351    H    0.75000000    0.30336006    0.50486006    0.05190000
opls_146-352    H    0.75000000    0.19637000    0.99780989    0.05190000
opls_146-353    H    0.75000000    0.21199006    0.94072996    0.05190000
opls_146-354    H    0.75000000    0.30533996    0.96897000    0.05190000
opls_146-355    H    0.75000000    0.28989993    0.02586006    0.05190000
opls_146-356    H    0.75000000    0.16537994    0.77118003    0.05200000
opls_146-357    H    0.75000000    0.10974000    0.76597000    0.05190000
opls_146-358    H    0.75000000    0.11807002    0.66330005    0.05190000
opls_146-359    H    0.75000000    0.17389993    0.66847000    0.05190000
opls_144-360    H    0.75000000    0.06840998    0.68698008    0.03060000
opls_146-361    H    0.75000000    0.18632008    0.15498008    0.05190000
opls_146-362    H    0.75000000    0.19618997    0.09622996    0.05190000
opls_146-363    H    0.75000000    0.29170002    0.11422011    0.05130000
opls_146-364    H    0.75000000    0.28225006    0.17187998    0.05130000
opls_146-365    H    0.75000000    0.31548995    0.81183005    0.05190000
opls_146-366    H    0.75000000    0.30563994    0.87053000    0.05190000
opls_146-367    H    0.75000000    0.21008991    0.85254993    0.05190000
opls_146-368    H    0.75000000    0.21956991    0.79492007    -0.14640000
opls_144-369    H    0.75000000    0.22486989    0.90337998    0.03060000
opls_144-370    H    0.75000000    0.27686989    0.06337998    0.03060000
opls_146-371    H    0.75000000    0.17089993    0.30447000    0.05190000
opls_146-372    H    0.75000000    0.16880009    0.36406001    0.05190000
opls_146-373    H    0.75000000    0.26582991    0.36763010    0.05190000
opls_146-374    H    0.75000000    0.26797990    0.30936990    -0.14630000
opls_144-375    H    0.75000000    0.19581997    0.41733990    0.03060000
opls_146-376    H    0.75000000    0.33086989    0.66236990    0.05130000
opls_146-377    H    0.75000000    0.33304992    0.60278997    0.05190000
opls_146-378    H    0.75000000    0.23603004    0.59904993    0.05190000
opls_146-379    H    0.75000000    0.23377999    0.65733005    0.05190000
opls_146-380    H    0.75000000    0.47199006    0.33139991    0.05190000
opls_146-381    H    0.75000000    0.47226000    0.22824004    0.05190000
opls_146-382    H    0.75000000    0.02799006    0.68339991    0.05190000
opls_146-383    H    0.75000000    0.02789993    0.78651992    0.05130000
opls_562-384    H    0.75000000    0.71949989    0.29398008    0.27300000
opls_562-385    H    0.75000000    0.78921007    0.77677004    0.27300000
opls_146-386    H    0.75000000    0.82577999    0.25892991    0.05190000
opls_146-387    H    0.75000000    0.81948995    0.19968003    0.05130000
opls_146-388    H    0.75000000    0.67848995    0.76681997    0.05190000
opls_146-389    H    0.75000000    0.67244003    0.70789006    0.05190000
opls_144-390    H    0.75000000    0.69380009    0.54948992    0.03060000
opls_146-391    H    0.75000000    0.67206008    0.29839006    0.05190000
opls_146-392    H    0.75000000    0.61622001    0.30348008    0.05190000
opls_146-393    H    0.75000000    0.60803998    0.20074004    0.05190000
opls_146-394    H    0.75000000    0.66363994    0.19565002    0.05190000
opls_144-395    H    0.75000000    0.56480009    0.23048992    0.03060000
opls_146-396    H    0.75000000    0.79266004    0.52048008    0.05190000
opls_146-397    H    0.75000000    0.80130992    0.46192991    0.05190000
opls_146-398    H    0.75000000    0.70525006    0.44619011    0.05190000
opls_146-399    H    0.75000000    0.69663994    0.50486006    0.05190000
opls_146-400    H    0.75000000    0.80363000    0.99780989    0.05190000
opls_146-401    H    0.75000000    0.78800994    0.94072996    0.05190000
opls_146-402    H    0.75000000    0.69466004    0.96897000    0.05190000
opls_146-403    H    0.75000000    0.71010007    0.02586006    0.05190000
opls_146-404    H    0.75000000    0.83462006    0.77118003    0.05190000
opls_146-405    H    0.75000000    0.89026000    0.76597000    0.05190000
opls_146-406    H    0.75000000    0.88192998    0.66330005    0.05190000
opls_146-407    H    0.75000000    0.82610007    0.66847000    0.05190000
opls_144-408    H    0.75000000    0.93159002    0.68698008    0.03060000
opls_146-409    H    0.75000000    0.81367992    0.15498008    0.05190000
opls_146-410    H    0.75000000    0.80381003    0.09622996    0.05190000
opls_146-411    H    0.75000000    0.70829998    0.11422011    0.05130000
opls_146-412    H    0.75000000    0.71774994    0.17187998    0.05130000
opls_146-413    H    0.75000000    0.68451005    0.81183005    0.05190000
opls_146-414    H    0.75000000    0.69436006    0.87053000    0.05190000
opls_146-415    H    0.75000000    0.78991009    0.85254993    0.05190000
opls_146-416    H    0.75000000    0.78043009    0.79492007    -0.14630000
opls_144-417    H    0.75000000    0.77513011    0.90337998    0.03060000
opls_144-418    H    0.75000000    0.72313011    0.06337998    0.03060000
opls_146-419    H    0.75000000    0.82910007    0.30447000    0.05190000
opls_146-420    H    0.75000000    0.83119991    0.36406001    0.05190000
opls_146-421    H    0.75000000    0.73417009    0.36763010    0.05190000
opls_146-422    H    0.75000000    0.73202010    0.30936990    -0.14630000
opls_144-423    H    0.75000000    0.80418003    0.41733990    0.03060000
opls_146-424    H    0.75000000    0.66913011    0.66236990    0.05130000
opls_146-425    H    0.75000000    0.66695008    0.60278997    0.05190000
opls_146-426    H    0.75000000    0.76396996    0.59904993    0.05190000
opls_146-427    H    0.75000000    0.76622001    0.65733005    0.05190000
opls_146-428    H    0.75000000    0.52800994    0.33139991    0.05190000
opls_146-429    H    0.75000000    0.52774000    0.22824004    0.05190000
opls_146-430    H    0.75000000    0.97200994    0.68339991    0.05190000
opls_146-431    H    0.75000000    0.97210007    0.78651992    0.05130000
opls_562-432    H    0.25000000    0.28050011    0.70601992    0.27290000
opls_562-433    H    0.25000000    0.21078993    0.22322996    0.27310000
opls_146-434    H    0.25000000    0.17422001    0.74107009    0.05190000
opls_146-435    H    0.25000000    0.18051005    0.80031997    0.05130000
opls_146-436    H    0.25000000    0.32151005    0.23318003    0.05190000
opls_146-437    H    0.25000000    0.32755997    0.29210994    0.05190000
opls_144-438    H    0.25000000    0.30619991    0.45051008    0.03060000
opls_146-439    H    0.25000000    0.32793992    0.70160994    0.05190000
opls_146-440    H    0.25000000    0.38377999    0.69651992    0.05190000
opls_146-441    H    0.25000000    0.39196002    0.79925996    0.05190000
opls_146-442    H    0.25000000    0.33636006    0.80434998    0.05190000
opls_144-443    H    0.25000000    0.43519991    0.76951008    0.03060000
opls_146-444    H    0.25000000    0.20733996    0.47951992    0.05190000
opls_146-445    H    0.25000000    0.19869008    0.53807009    0.05190000
opls_146-446    H    0.25000000    0.29474994    0.55380989    0.05190000
opls_146-447    H    0.25000000    0.30336006    0.49513994    0.05190000
opls_146-448    H    0.25000000    0.19637000    0.00219011    0.05190000
opls_146-449    H    0.25000000    0.21199006    0.05927004    0.05190000
opls_146-450    H    0.25000000    0.30533996    0.03103000    0.05190000
opls_146-451    H    0.25000000    0.28989993    0.97413994    0.05190000
opls_146-452    H    0.25000000    0.16537994    0.22881997    0.05190000
opls_146-453    H    0.25000000    0.10974000    0.23403000    0.05190000
opls_146-454    H    0.25000000    0.11807002    0.33669995    0.05190000
opls_146-455    H    0.25000000    0.17389993    0.33153000    0.05190000
opls_144-456    H    0.25000000    0.06840998    0.31301992    0.03060000
opls_146-457    H    0.25000000    0.18632008    0.84501992    0.05190000
opls_146-458    H    0.25000000    0.19618997    0.90377004    0.05190000
opls_146-459    H    0.25000000    0.29170002    0.88577989    0.05130000
opls_146-460    H    0.25000000    0.28225006    0.82812002    0.05130000
opls_146-461    H    0.25000000    0.31548995    0.18816995    0.05190000
opls_146-462    H    0.25000000    0.30563994    0.12947000    0.05190000
opls_146-463    H    0.25000000    0.21008991    0.14745007    0.05190000
opls_146-464    H    0.25000000    0.21956991    0.20507993    -0.14630000
opls_144-465    H    0.25000000    0.22486989    0.09662002    0.03060000
opls_144-466    H    0.25000000    0.27686989    0.93662002    0.03060000
opls_146-467    H    0.25000000    0.17089993    0.69553000    0.05190000
opls_146-468    H    0.25000000    0.16880009    0.63593999    0.05190000
opls_146-469    H    0.25000000    0.26582991    0.63236990    0.05190000
opls_146-470    H    0.25000000    0.26797990    0.69063010    -0.14630000
opls_144-471    H    0.25000000    0.19581997    0.58266010    0.03060000
opls_146-472    H    0.25000000    0.33086989    0.33763010    0.05130000
opls_146-473    H    0.25000000    0.33304992    0.39721003    0.05190000
opls_146-474    H    0.25000000    0.23603004    0.40095007    0.05190000
opls_146-475    H    0.25000000    0.23377999    0.34266995    0.05190000
opls_146-476    H    0.25000000    0.47199006    0.66860009    0.05190000
opls_146-477    H    0.25000000    0.47226000    0.77175996    0.05190000
opls_146-478    H    0.25000000    0.02799006    0.31660009    0.05190000
opls_146-479    H    0.25000000    0.02789993    0.21348008    0.05130000
opls_562-480    H    0.25000000    0.71949989    0.70601992    0.27310000
opls_562-481    H    0.25000000    0.78921007    0.22322996    0.27300000
opls_146-482    H    0.25000000    0.82577999    0.74107009    0.05190000
opls_146-483    H    0.25000000    0.81948995    0.80031997    0.05130000
opls_146-484    H    0.25000000    0.67848995    0.23318003    0.05190000
opls_146-485    H    0.25000000    0.67244003    0.29210994    0.05190000
opls_144-486    H    0.25000000    0.69380009    0.45051008    0.03060000
opls_146-487    H    0.25000000    0.67206008    0.70160994    0.05190000
opls_146-488    H    0.25000000    0.61622001    0.69651992    0.05190000
opls_146-489    H    0.25000000    0.60803998    0.79925996    0.05190000
opls_146-490    H    0.25000000    0.66363994    0.80434998    0.05190000
opls_144-491    H    0.25000000    0.56480009    0.76951008    0.03060000
opls_146-492    H    0.25000000    0.79266004    0.47951992    0.05190000
opls_146-493    H    0.25000000    0.80130992    0.53807009    0.05200000
opls_146-494    H    0.25000000    0.70525006    0.55380989    0.05190000
opls_146-495    H    0.25000000    0.69663994    0.49513994    0.05190000
opls_146-496    H    0.25000000    0.80363000    0.00219011    0.05190000
opls_146-497    H    0.25000000    0.78800994    0.05927004    0.05190000
opls_146-498    H    0.25000000    0.69466004    0.03103000    0.05190000
opls_146-499    H    0.25000000    0.71010007    0.97413994    0.05190000
opls_146-500    H    0.25000000    0.83462006    0.22881997    0.05190000
opls_146-501    H    0.25000000    0.89026000    0.23403000    0.05190000
opls_146-502    H    0.25000000    0.88192998    0.33669995    0.05190000
opls_146-503    H    0.25000000    0.82610007    0.33153000    0.05190000
opls_144-504    H    0.25000000    0.93159002    0.31301992    0.03060000
opls_146-505    H    0.25000000    0.81367992    0.84501992    0.05190000
opls_146-506    H    0.25000000    0.80381003    0.90377004    0.05190000
opls_146-507    H    0.25000000    0.70829998    0.88577989    0.05130000
opls_146-508    H    0.25000000    0.71774994    0.82812002    0.05140000
opls_146-509    H    0.25000000    0.68451005    0.18816995    0.05190000
opls_146-510    H    0.25000000    0.69436006    0.12947000    0.05190000
opls_146-511    H    0.25000000    0.78991009    0.14745007    0.05190000
opls_146-512    H    0.25000000    0.78043009    0.20507993    -0.14640000
opls_144-513    H    0.25000000    0.77513011    0.09662002    0.03060000
opls_144-514    H    0.25000000    0.72313011    0.93662002    0.03060000
opls_146-515    H    0.25000000    0.82910007    0.69553000    0.05190000
opls_146-516    H    0.25000000    0.83119991    0.63593999    0.05190000
opls_146-517    H    0.25000000    0.73417009    0.63236990    0.05190000
opls_146-518    H    0.25000000    0.73202010    0.69063010    -0.14630000
opls_144-519    H    0.25000000    0.80418003    0.58266010    0.03060000
opls_146-520    H    0.25000000    0.66913011    0.33763010    0.05130000
opls_146-521    H    0.25000000    0.66695008    0.39721003    0.05190000
opls_146-522    H    0.25000000    0.76396996    0.40095007    0.05190000
opls_146-523    H    0.25000000    0.76622001    0.34266995    0.05190000
opls_146-524    H    0.25000000    0.52800994    0.66860009    0.05190000
opls_146-525    H    0.25000000    0.52774000    0.77175996    0.05190000
opls_146-526    H    0.25000000    0.97200994    0.31660009    0.05190000
opls_146-527    H    0.25000000    0.97210007    0.21348008    0.05130000
