#======================================================================
# Crystal Data Generated By AuToFF
#----------------------------------------------------------------------

data_AuToFF_phase_1

_cell_length_a                         43.7788
_cell_length_b                         23.4757
_cell_length_c                         21.3782
_cell_angle_alpha                      90.00
_cell_angle_beta                       90.00
_cell_angle_gamma                      90.00
_symmetry_space_group_name_H-M_alt     'P 1'
_symmetry_space_group_IT_number        1

loop_
_space_group_symop_operation_xyz
   'x, y, z'

loop_
   _atom_site_label
   _atom_site_type_symbol
   _atom_site_fract_x
   _atom_site_fract_y
   _atom_site_fract_z
   _atom_site_charge
opls_145-0    C    0.42058005    0.57477988    0.69527977    -0.12650000
opls_145-1    C    0.57941995    0.42522012    0.19527977    -0.12650000
opls_145-2    C    0.42058005    0.42522012    0.19527977    -0.12650000
opls_145-3    C    0.57941995    0.57477988    0.69527977    -0.12650000
opls_145-4    C    0.39758011    0.57271988    0.74016989    -0.12710000
opls_145-5    C    0.60241989    0.42728012    0.24016989    -0.12710000
opls_145-6    C    0.39758011    0.42728012    0.24016989    -0.12710000
opls_145-7    C    0.60241989    0.57271988    0.74016989    -0.12710000
opls_145-8    C    0.29269989    0.59968009    0.85938012    -0.17680000
opls_145-9    C    0.70730011    0.40031991    0.35938012    -0.17680000
opls_145-10    C    0.29269989    0.40031991    0.35938012    -0.17670000
opls_145-11    C    0.70730011    0.59968009    0.85938012    -0.17680000
opls_145-12    C    0.26996994    0.60084002    0.90488021    -0.12130000
opls_145-13    C    0.73003006    0.39915998    0.40488021    -0.12130000
opls_145-14    C    0.26996994    0.39915998    0.40488021    -0.12130000
opls_145-15    C    0.73003006    0.60084002    0.90488021    -0.12130000
opls_145-16    C    0.08284992    0.65984018    0.47406002    -0.11690000
opls_145-17    C    0.91715008    0.34015982    0.97406002    -0.11690000
opls_145-18    C    0.08284992    0.34015982    0.97406002    -0.11690000
opls_145-19    C    0.91715008    0.65984018    0.47406002    -0.11690000
opls_145-20    C    0.10499991    0.61740992    0.47786016    -0.12270000
opls_145-21    C    0.89500009    0.38259008    0.97786016    -0.12270000
opls_145-22    C    0.10499991    0.38259008    0.97786016    -0.12270000
opls_145-23    C    0.89500009    0.61740992    0.47786016    -0.12270000
opls_145-24    C    0.18067010    0.46029000    0.43614991    -0.16620000
opls_145-25    C    0.81932990    0.53971000    0.93614991    -0.16620000
opls_145-26    C    0.18067010    0.53971000    0.93614991    -0.16620000
opls_145-27    C    0.81932990    0.46029000    0.43614991    -0.16620000
opls_145-28    C    0.20174993    0.41589005    0.43434012    -0.12400000
opls_145-29    C    0.79825007    0.58410995    0.93434012    -0.12400000
opls_145-30    C    0.20174993    0.58410995    0.93434012    -0.12400000
opls_145-31    C    0.79825007    0.41589005    0.43434012    -0.12400000
opls_145-32    C    0.39844993    0.33966996    0.15163999    -0.12650000
opls_145-33    C    0.60155007    0.66033004    0.65163999    -0.12650000
opls_145-34    C    0.39844993    0.66033004    0.65163999    -0.12650000
opls_145-35    C    0.60155007    0.33966996    0.15163999    -0.12650000
opls_145-36    C    0.37538009    0.34185988    0.19642019    -0.11450000
opls_145-37    C    0.62461991    0.65814012    0.69642019    -0.11450000
opls_145-38    C    0.37538009    0.65814012    0.69642019    -0.11440000
opls_145-39    C    0.62461991    0.34185988    0.19642019    -0.11450000
opls_145-40    C    0.29604991    0.29787994    0.36305021    -0.17680000
opls_145-41    C    0.70395009    0.70212006    0.86305021    -0.17680000
opls_145-42    C    0.29604991    0.70212006    0.86305021    -0.17680000
opls_145-43    C    0.70395009    0.29787994    0.36305021    -0.17680000
opls_145-44    C    0.27357991    0.29653983    0.40909010    -0.11920000
opls_145-45    C    0.72642009    0.70346017    0.90909010    -0.11920000
opls_145-46    C    0.27357991    0.70346017    0.90909010    -0.11910000
opls_145-47    C    0.72642009    0.29653983    0.40909010    -0.11920000
opls_145-48    C    0.08366995    0.96920007    0.97210008    -0.11690000
opls_145-49    C    0.91633005    0.03079993    0.47210008    -0.11690000
opls_145-50    C    0.08366995    0.03079993    0.47210008    -0.11690000
opls_145-51    C    0.91633005    0.96920007    0.97210008    -0.11690000
opls_145-52    C    0.10582999    0.92678003    0.97588010    -0.12020000
opls_145-53    C    0.89417001    0.07321997    0.47588010    -0.12020000
opls_145-54    C    0.10582999    0.07321997    0.47588010    -0.12020000
opls_145-55    C    0.89417001    0.92678003    0.97588010    -0.12020000
opls_145-56    C    0.18505989    0.77525995    0.93371986    -0.17330000
opls_145-57    C    0.81494011    0.22474005    0.43371986    -0.17330000
opls_145-58    C    0.18505989    0.22474005    0.43371986    -0.17330000
opls_145-59    C    0.81494011    0.77525995    0.93371986    -0.17330000
opls_145-60    C    0.20594991    0.73050985    0.93231002    -0.12790000
opls_145-61    C    0.79405009    0.26949015    0.43231002    -0.12790000
opls_145-62    C    0.20594991    0.26949015    0.43231002    -0.12790000
opls_145-63    C    0.79405009    0.73050985    0.93231002    -0.12780000
opls_142-64    C    0.35330000    0.38429014    0.68281006    0.07160000
opls_142-65    C    0.64670000    0.61570986    0.18281006    0.07160000
opls_142-66    C    0.35330000    0.61570986    0.18281006    0.07160000
opls_142-67    C    0.64670000    0.38429014    0.68281006    0.07160000
opls_142-68    C    0.14675003    0.43184996    0.03677017    0.07040000
opls_142-69    C    0.85324997    0.56815004    0.53677017    0.07040000
opls_142-70    C    0.14675003    0.56815004    0.53677017    0.07040000
opls_142-71    C    0.85324997    0.43184996    0.03677017    0.07040000
opls_543-72    C    0.43610994    0.61292017    0.53895978    0.18330000
opls_543-73    C    0.56389006    0.38707983    0.03895978    0.18330000
opls_543-74    C    0.43610994    0.38707983    0.03895978    0.18330000
opls_543-75    C    0.56389006    0.61292017    0.53895978    0.18330000
opls_700-76    C    0.44509009    0.61976001    0.60192018    -0.07140000
opls_700-77    C    0.55490991    0.38023999    0.10192018    -0.07140000
opls_700-78    C    0.44509009    0.38023999    0.10192018    -0.07140000
opls_700-79    C    0.55490991    0.61976001    0.60192018    -0.07140000
opls_700-80    C    0.42108007    0.61843992    0.65055009    0.06820000
opls_700-81    C    0.57891993    0.38156008    0.15055009    0.06820000
opls_700-82    C    0.42108007    0.38156008    0.15055009    0.06830000
opls_700-83    C    0.57891993    0.61843992    0.65055009    0.06820000
opls_700-84    C    0.37467998    0.61406987    0.74084020    0.05570000
opls_700-85    C    0.62532002    0.38593013    0.24084020    0.05570000
opls_700-86    C    0.37467998    0.38593013    0.24084020    0.05570000
opls_700-87    C    0.62532002    0.61406987    0.74084020    0.05570000
opls_145-88    C    0.30622996    0.65040020    0.83891020    0.19430000
opls_145-89    C    0.69377004    0.34959980    0.33891020    0.19430000
opls_145-90    C    0.30622996    0.34959980    0.33891020    0.19430000
opls_145-91    C    0.69377004    0.65040020    0.83891020    0.19430000
opls_700-92    C    0.25950003    0.65291003    0.92996978    0.06120000
opls_700-93    C    0.74049997    0.34708997    0.42996978    0.06120000
opls_700-94    C    0.25950003    0.34708997    0.42996978    0.06120000
opls_700-95    C    0.74049997    0.65291003    0.92996978    0.06120000
opls_716-96    C    0.59441008    0.59770997    0.51861008    -0.17390000
opls_716-97    C    0.40558992    0.40229003    0.01861008    -0.17390000
opls_716-98    C    0.59441008    0.40229003    0.01861008    -0.17390000
opls_716-99    C    0.40558992    0.59770997    0.51861008    -0.17390000
opls_543-100    C    0.97542989    0.27492002    0.02475980    0.20560000
opls_543-101    C    0.02457011    0.72507998    0.52475980    0.20560000
opls_543-102    C    0.97542989    0.72507998    0.52475980    0.20560000
opls_543-103    C    0.02457011    0.27492002    0.02475980    0.20560000
opls_716-104    C    0.98510992    0.33352999    0.03575979    -0.19950000
opls_716-105    C    0.01489008    0.66647001    0.53575979    -0.19950000
opls_716-106    C    0.98510992    0.66647001    0.53575979    -0.19950000
opls_716-107    C    0.01489008    0.33352999    0.03575979    -0.19950000
opls_700-108    C    0.92130004    0.30199994    0.02377001    0.06800000
opls_700-109    C    0.07869996    0.69800006    0.52377001    0.06800000
opls_700-110    C    0.92130004    0.69800006    0.52377001    0.06800000
opls_700-111    C    0.07869996    0.30199994    0.02377001    0.06800000
opls_700-112    C    0.87666999    0.38726982    0.03140021    0.05240000
opls_700-113    C    0.12333001    0.61273018    0.53140021    0.05240000
opls_700-114    C    0.87666999    0.61273018    0.53140021    0.05240000
opls_700-115    C    0.12333001    0.38726982    0.03140021    0.05240000
opls_145-116    C    0.82715995    0.51404985    0.99280997    0.19710000
opls_145-117    C    0.17284005    0.48595015    0.49280997    0.19710000
opls_145-118    C    0.82715995    0.48595015    0.49280997    0.19710000
opls_145-119    C    0.17284005    0.51404985    0.99280997    0.19710000
opls_700-120    C    0.78379010    0.60306998    0.98942006    0.06540000
opls_700-121    C    0.21620990    0.39693002    0.48942006    0.06540000
opls_700-122    C    0.78379010    0.39693002    0.48942006    0.06540000
opls_700-123    C    0.21620990    0.60306998    0.98942006    0.06540000
opls_700-124    C    0.05505998    0.25730990    0.02035017    -0.07130000
opls_700-125    C    0.94494002    0.74269010    0.52035017    -0.07130000
opls_700-126    C    0.05505998    0.74269010    0.52035017    -0.07130000
opls_700-127    C    0.94494002    0.25730990    0.02035017    -0.07130000
opls_145-128    C    0.39812992    0.66342984    0.32488002    -0.12960000
opls_145-129    C    0.60187008    0.33657016    0.82488002    -0.12960000
opls_145-130    C    0.39812992    0.33657016    0.82488002    -0.12960000
opls_145-131    C    0.60187008    0.66342984    0.32488002    -0.12960000
opls_145-132    C    0.37583008    0.66157005    0.27839996    -0.12340000
opls_145-133    C    0.62416992    0.33842995    0.77839996    -0.12340000
opls_145-134    C    0.37583008    0.33842995    0.77839996    -0.12340000
opls_145-135    C    0.62416992    0.66157005    0.27839996    -0.12340000
opls_145-136    C    0.29483997    0.70382012    0.11453022    -0.16110000
opls_145-137    C    0.70516003    0.29617988    0.61453022    -0.16110000
opls_145-138    C    0.29483997    0.29617988    0.61453022    -0.16110000
opls_145-139    C    0.70516003    0.70382012    0.11453022    -0.16110000
opls_145-140    C    0.27207004    0.70473979    0.06901984    -0.12400000
opls_145-141    C    0.72792996    0.29526021    0.56901984    -0.12400000
opls_145-142    C    0.27207004    0.29526021    0.56901984    -0.12400000
opls_145-143    C    0.72792996    0.70473979    0.06901984    -0.12400000
opls_145-144    C    0.09612004    0.00014014    0.57720996    -0.12650000
opls_145-145    C    0.90387996    0.99985986    0.07720996    -0.12650000
opls_145-146    C    0.09612004    0.99985986    0.07720996    -0.12650000
opls_145-147    C    0.90387996    0.00014014    0.57720996    -0.12650000
opls_145-148    C    0.11824011    0.04252014    0.58104003    -0.11040000
opls_145-149    C    0.88175989    0.95747986    0.08104003    -0.11040000
opls_145-150    C    0.11824011    0.95747986    0.08104003    -0.11040000
opls_145-151    C    0.88175989    0.04252014    0.58104003    -0.11040000
opls_145-152    C    0.18319004    0.23041017    0.54637013    -0.16300000
opls_145-153    C    0.81680996    0.76958983    0.04637013    -0.16290000
opls_145-154    C    0.18319004    0.76958983    0.04637013    -0.16300000
opls_145-155    C    0.81680996    0.23041017    0.54637013    -0.16300000
opls_145-156    C    0.20399006    0.27521011    0.54510997    -0.12040000
opls_145-157    C    0.79600994    0.72478989    0.04510997    -0.12040000
opls_145-158    C    0.20399006    0.72478989    0.04510997    -0.12040000
opls_145-159    C    0.79600994    0.27521011    0.54510997    -0.12040000
opls_145-160    C    0.42244009    0.41900007    0.77892994    -0.12590000
opls_145-161    C    0.57755991    0.58099993    0.27892994    -0.12590000
opls_145-162    C    0.42244009    0.58099993    0.27892994    -0.12590000
opls_145-163    C    0.57755991    0.41900007    0.77892994    -0.12590000
opls_145-164    C    0.40033989    0.42049992    0.73223003    -0.13490000
opls_145-165    C    0.59966011    0.57950008    0.23223003    -0.13490000
opls_145-166    C    0.40033989    0.57950008    0.23223003    -0.13490000
opls_145-167    C    0.59966011    0.42049992    0.73223003    -0.13490000
opls_145-168    C    0.29770003    0.39846991    0.60628023    -0.17830000
opls_145-169    C    0.70229997    0.60153009    0.10628023    -0.17830000
opls_145-170    C    0.29770003    0.60153009    0.10628023    -0.17830000
opls_145-171    C    0.70229997    0.39846991    0.60628023    -0.17830000
opls_145-172    C    0.27487003    0.39775981    0.56110992    -0.11930000
opls_145-173    C    0.72512997    0.60224019    0.06110992    -0.11930000
opls_145-174    C    0.27487003    0.60224019    0.06110992    -0.11930000
opls_145-175    C    0.72512997    0.39775981    0.56110992    -0.11930000
opls_145-176    C    0.09695994    0.30655997    0.07718002    -0.12720000
opls_145-177    C    0.90304006    0.69344003    0.57718002    -0.12720000
opls_145-178    C    0.09695994    0.69344003    0.57718002    -0.12720000
opls_145-179    C    0.90304006    0.30655997    0.07718002    -0.12720000
opls_145-180    C    0.11914009    0.34883007    0.08093011    -0.11690000
opls_145-181    C    0.88085991    0.65116993    0.58093011    -0.11690000
opls_145-182    C    0.11914009    0.65116993    0.58093011    -0.11690000
opls_145-183    C    0.88085991    0.34883007    0.08093011    -0.11690000
opls_145-184    C    0.18542993    0.53523984    0.04849987    -0.16320000
opls_145-185    C    0.81457007    0.46476016    0.54849987    -0.16320000
opls_145-186    C    0.18542993    0.46476016    0.54849987    -0.16320000
opls_145-187    C    0.81457007    0.53523984    0.04849987    -0.16320000
opls_145-188    C    0.20652005    0.57956014    0.04683977    -0.12360000
opls_145-189    C    0.79347995    0.42043986    0.54683977    -0.12360000
opls_145-190    C    0.20652005    0.42043986    0.54683977    -0.12360000
opls_145-191    C    0.79347995    0.57956014    0.04683977    -0.12360000
opls_142-192    C    0.35029992    0.38980989    0.28786989    0.07470000
opls_142-193    C    0.64970008    0.61019011    0.78786989    0.07470000
opls_142-194    C    0.35029992    0.61019011    0.78786989    0.07470000
opls_142-195    C    0.64970008    0.38980989    0.28786989    0.07470000
opls_142-196    C    0.14650995    0.87561010    0.03601005    0.07070000
opls_142-197    C    0.85349005    0.12438990    0.53601005    0.07070000
opls_142-198    C    0.14650995    0.12438990    0.53601005    0.07070000
opls_142-199    C    0.85349005    0.87561010    0.03601005    0.07070000
opls_543-200    C    0.43605010    0.61511989    0.43741990    0.18870000
opls_543-201    C    0.56394990    0.38488011    0.93741990    0.18870000
opls_543-202    C    0.43605010    0.38488011    0.93741990    0.18870000
opls_543-203    C    0.56394990    0.61511989    0.43741990    0.18870000
opls_700-204    C    0.44512001    0.62440012    0.37496001    -0.07240000
opls_700-205    C    0.55487999    0.37559988    0.87496001    -0.07240000
opls_700-206    C    0.44512001    0.37559988    0.87496001    -0.07240000
opls_700-207    C    0.55487999    0.62440012    0.37496001    -0.07240000
opls_700-208    C    0.42149008    0.62295991    0.32556997    0.06820000
opls_700-209    C    0.57850992    0.37704009    0.82556997    0.06820000
opls_700-210    C    0.42149008    0.37704009    0.82556997    0.06820000
opls_700-211    C    0.57850992    0.62295991    0.32556997    0.06820000
opls_700-212    C    0.37674993    0.61940986    0.23180015    0.05550000
opls_700-213    C    0.62325007    0.38059014    0.73180015    0.05550000
opls_700-214    C    0.37674993    0.38059014    0.73180015    0.05550000
opls_700-215    C    0.62325007    0.61940986    0.23180015    0.05550000
opls_145-216    C    0.30811009    0.65253986    0.13281006    0.19340000
opls_145-217    C    0.69188991    0.34746014    0.63281006    0.19340000
opls_145-218    C    0.30811009    0.34746014    0.63281006    0.19340000
opls_145-219    C    0.69188991    0.65253986    0.13281006    0.19340000
opls_700-220    C    0.26092995    0.65368999    0.04270986    0.06110000
opls_700-221    C    0.73907005    0.34631001    0.54270986    0.06110000
opls_700-222    C    0.26092995    0.34631001    0.54270986    0.06110000
opls_700-223    C    0.73907005    0.65368999    0.04270986    0.06110000
opls_716-224    C    0.59444000    0.59897980    0.45698983    -0.17380000
opls_716-225    C    0.40556000    0.40102020    0.95698983    -0.17390000
opls_716-226    C    0.59444000    0.40102020    0.95698983    -0.17390000
opls_716-227    C    0.40556000    0.59897980    0.45698983    -0.17390000
opls_543-228    C    0.97542989    0.03271979    0.02340001    0.20440000
opls_543-229    C    0.02457011    0.96728021    0.52340001    0.20440000
opls_543-230    C    0.97542989    0.96728021    0.52340001    0.20440000
opls_543-231    C    0.02457011    0.03271979    0.02340001    0.20440000
opls_716-232    C    0.98510009    0.97397011    0.03339991    -0.19950000
opls_716-233    C    0.01489991    0.02602989    0.53339991    -0.19950000
opls_716-234    C    0.98510009    0.02602989    0.53339991    -0.19950000
opls_716-235    C    0.01489991    0.97397011    0.03339991    -0.19950000
opls_700-236    C    0.92130004    0.00586990    0.02281015    0.06820000
opls_700-237    C    0.07869996    0.99413010    0.52281015    0.06830000
opls_700-238    C    0.92130004    0.99413010    0.52281015    0.06820000
opls_700-239    C    0.07869996    0.00586990    0.02281015    0.06820000
opls_700-240    C    0.87673006    0.92053017    0.03048994    0.05240000
opls_700-241    C    0.12326994    0.07946983    0.53048994    0.05240000
opls_700-242    C    0.87673006    0.07946983    0.53048994    0.05240000
opls_700-243    C    0.12326994    0.92053017    0.03048994    0.05240000
opls_145-244    C    0.82596005    0.79600012    0.99053990    0.19160000
opls_145-245    C    0.17403995    0.20399988    0.49053990    0.19170000
opls_145-246    C    0.82596005    0.20399988    0.49053990    0.19160000
opls_145-247    C    0.17403995    0.79600012    0.99053990    0.19160000
opls_700-248    C    0.78306989    0.70611015    0.98830023    0.05980000
opls_700-249    C    0.21693011    0.29388985    0.48830023    0.05980000
opls_700-250    C    0.78306989    0.29388985    0.48830023    0.05980000
opls_700-251    C    0.21693011    0.70611015    0.98830023    0.05980000
opls_700-252    C    0.05503006    0.05049988    0.01943007    -0.07000000
opls_700-253    C    0.94496994    0.94950012    0.51943007    -0.07000000
opls_700-254    C    0.05503006    0.94950012    0.51943007    -0.07000000
opls_700-255    C    0.94496994    0.05049988    0.01943007    -0.06990000
opls_701-256    C    0.76171001    0.65406016    0.98749988    0.00870000
opls_701-257    C    0.23828999    0.34593984    0.48749988    0.00870000
opls_701-258    C    0.76171001    0.34593984    0.48749988    0.00870000
opls_701-259    C    0.23828999    0.65406016    0.98749988    0.00870000
opls_543-260    C    0.47546004    0.62697002    0.62125015    0.20270000
opls_543-261    C    0.52453996    0.37302998    0.12125015    0.20270000
opls_543-262    C    0.47546004    0.37302998    0.12125015    0.20270000
opls_543-263    C    0.52453996    0.62697002    0.62125015    0.20270000
opls_716-264    C    0.48447011    0.64042009    0.68141003    -0.20060000
opls_716-265    C    0.51552989    0.35957991    0.18141003    -0.20060000
opls_716-266    C    0.48447011    0.35957991    0.18141003    -0.20050000
opls_716-267    C    0.51552989    0.64042009    0.68141003    -0.20060000
opls_543-268    C    0.47547991    0.63342989    0.35663994    0.20150000
opls_543-269    C    0.52452009    0.36657011    0.85663994    0.20140000
opls_543-270    C    0.47547991    0.36657011    0.85663994    0.20140000
opls_543-271    C    0.52452009    0.63342989    0.35663994    0.20140000
opls_716-272    C    0.48448998    0.64925987    0.29717001    -0.20070000
opls_716-273    C    0.51551002    0.35074013    0.79717001    -0.20070000
opls_716-274    C    0.48448998    0.35074013    0.79717001    -0.20070000
opls_716-275    C    0.51551002    0.64925987    0.29717001    -0.20070000
opls_543-276    C    0.06453991    0.79993994    0.51477019    0.20140000
opls_543-277    C    0.93546009    0.20006006    0.01477019    0.20140000
opls_543-278    C    0.06453991    0.20006006    0.01477019    0.20140000
opls_543-279    C    0.93546009    0.79993994    0.51477019    0.20140000
opls_716-280    C    0.09423008    0.81690983    0.50624000    -0.20060000
opls_716-281    C    0.90576992    0.18309017    0.00624000    -0.20060000
opls_716-282    C    0.09423008    0.18309017    0.00624000    -0.20060000
opls_716-283    C    0.90576992    0.81690983    0.50624000    -0.20060000
opls_543-284    C    0.06450999    0.89220002    0.51440018    0.20140000
opls_543-285    C    0.93549001    0.10779998    0.01440018    0.20140000
opls_543-286    C    0.06450999    0.10779998    0.01440018    0.20140000
opls_543-287    C    0.93549001    0.89220002    0.51440018    0.20140000
opls_716-288    C    0.09420998    0.87523013    0.50605991    -0.20060000
opls_716-289    C    0.90579002    0.12476987    0.00605991    -0.20050000
opls_716-290    C    0.09420998    0.12476987    0.00605991    -0.20060000
opls_716-291    C    0.90579002    0.87523013    0.50605991    -0.20060000
opls_146-292    H    0.60138994    0.69436992    0.61747996    0.11700000
opls_146-293    H    0.39861006    0.30563008    0.11747996    0.11690000
opls_146-294    H    0.60138994    0.30563008    0.11747996    0.11690000
opls_146-295    H    0.39861006    0.69436992    0.61747996    0.11690000
opls_146-296    H    0.64206008    0.69054001    0.69629997    0.11490000
opls_146-297    H    0.35793992    0.30945999    0.19629997    0.11490000
opls_146-298    H    0.64206008    0.30945999    0.19629997    0.11490000
opls_146-299    H    0.35793992    0.69054001    0.69629997    0.11490000
opls_146-300    H    0.69338995    0.74130015    0.84782021    0.11720000
opls_146-301    H    0.30661005    0.25869985    0.34782021    0.11720000
opls_146-302    H    0.69338995    0.25869985    0.34782021    0.11730000
opls_146-303    H    0.30661005    0.74130015    0.84782021    0.11720000
opls_146-304    H    0.73224003    0.74406983    0.92972000    0.11980000
opls_146-305    H    0.26775997    0.25593017    0.42972000    0.11990000
opls_146-306    H    0.73224003    0.25593017    0.42972000    0.11980000
opls_146-307    H    0.26775997    0.74406983    0.92972000    0.11980000
opls_146-308    H    0.90607006    0.72263021    0.61589984    0.11480000
opls_146-309    H    0.09392994    0.27736979    0.11589984    0.11480000
opls_146-310    H    0.90607006    0.27736979    0.11589984    0.11480000
opls_146-311    H    0.09392994    0.72263021    0.61589984    0.11480000
opls_146-312    H    0.86701006    0.64832018    0.62263989    0.11710000
opls_146-313    H    0.13298994    0.35167982    0.12263989    0.11710000
opls_146-314    H    0.86701006    0.35167982    0.12263989    0.11710000
opls_146-315    H    0.13298994    0.64832018    0.62263989    0.11710000
opls_146-316    H    0.82149990    0.48103997    0.59351021    0.11610000
opls_146-317    H    0.17850010    0.51896003    0.09351021    0.11630000
opls_146-318    H    0.82149990    0.51896003    0.09351021    0.11610000
opls_146-319    H    0.17850010    0.48103997    0.59351021    0.11610000
opls_146-320    H    0.78504002    0.40409998    0.59084020    0.12010000
opls_146-321    H    0.21495998    0.59590002    0.09084020    0.12010000
opls_146-322    H    0.78504002    0.59590002    0.09084020    0.12010000
opls_146-323    H    0.21495998    0.40409998    0.59084020    0.12010000
opls_146-324    H    0.56204007    0.45772011    0.19510015    0.10060000
opls_146-325    H    0.43795993    0.54227989    0.69510015    0.10060000
opls_146-326    H    0.56204007    0.54227989    0.69510015    0.10060000
opls_146-327    H    0.43795993    0.45772011    0.19510015    0.10060000
opls_146-328    H    0.60241007    0.46119008    0.27445996    0.11920000
opls_146-329    H    0.39758993    0.53880992    0.77445996    0.11920000
opls_146-330    H    0.60241007    0.53880992    0.77445996    0.11920000
opls_146-331    H    0.39758993    0.46119008    0.27445996    0.11920000
opls_146-332    H    0.70016995    0.44088014    0.34059977    0.12180000
opls_146-333    H    0.29983005    0.55911986    0.84059977    0.12180000
opls_146-334    H    0.70016995    0.55911986    0.84059977    0.12180000
opls_146-335    H    0.29983005    0.44088014    0.34059977    0.12180000
opls_146-336    H    0.73870001    0.43937007    0.42178995    0.11720000
opls_146-337    H    0.26129999    0.56062993    0.92178995    0.11720000
opls_146-338    H    0.73870001    0.56062993    0.92178995    0.11730000
opls_146-339    H    0.26129999    0.43937007    0.42178995    0.11720000
opls_146-340    H    0.90755000    0.02797020    0.11665014    0.11480000
opls_146-341    H    0.09245000    0.97202980    0.61665014    0.11480000
opls_146-342    H    0.90755000    0.97202980    0.61665014    0.11480000
opls_146-343    H    0.09245000    0.02797020    0.11665014    0.11480000
opls_146-344    H    0.86859005    0.95343014    0.12355016    0.11710000
opls_146-345    H    0.13140995    0.04656986    0.62355016    0.11710000
opls_146-346    H    0.86859005    0.04656986    0.62355016    0.11710000
opls_146-347    H    0.13140995    0.95343014    0.12355016    0.11710000
opls_146-348    H    0.82633010    0.78215005    0.09079997    0.11300000
opls_146-349    H    0.17366990    0.21784995    0.59079997    0.11300000
opls_146-350    H    0.82633010    0.21784995    0.59079997    0.11300000
opls_146-351    H    0.17366990    0.78215005    0.09079997    0.11300000
opls_146-352    H    0.79015003    0.70422991    0.08878016    0.11610000
opls_146-353    H    0.20984997    0.29577009    0.58878016    0.11610000
opls_146-354    H    0.79015003    0.29577009    0.58878016    0.11610000
opls_146-355    H    0.20984997    0.70422991    0.08878016    0.11610000
opls_547-356    H    0.61367009    0.58940010    0.42739987    0.08650000
opls_547-357    H    0.38632991    0.41059990    0.92739987    0.08650000
opls_547-358    H    0.61367009    0.41059990    0.92739987    0.08650000
opls_547-359    H    0.38632991    0.58940010    0.42739987    0.08650000
opls_547-360    H    0.97091994    0.37048991    0.04317997    0.11530000
opls_547-361    H    0.02908006    0.62951009    0.54317997    0.11530000
opls_547-362    H    0.97091994    0.62951009    0.54317997    0.11530000
opls_547-363    H    0.02908006    0.37048991    0.04317997    0.11540000
opls_144-364    H    0.35473997    0.41887995    0.64944008    0.10560000
opls_144-365    H    0.64526003    0.58112005    0.14944008    0.10560000
opls_144-366    H    0.35473997    0.58112005    0.14944008    0.10560000
opls_144-367    H    0.64526003    0.41887995    0.64944008    0.10570000
opls_144-368    H    0.16056996    0.43251021    0.07853982    0.09880000
opls_144-369    H    0.83943004    0.56748979    0.57853982    0.09880000
opls_144-370    H    0.16056996    0.56748979    0.57853982    0.09880000
opls_144-371    H    0.83943004    0.43251021    0.07853982    0.09880000
opls_146-372    H    0.55965993    0.54948990    0.27881019    0.12040000
opls_146-373    H    0.44034007    0.45051010    0.77881019    0.12040000
opls_146-374    H    0.55965993    0.45051010    0.77881019    0.12040000
opls_146-375    H    0.44034007    0.54948990    0.27881019    0.12040000
opls_146-376    H    0.59844993    0.54704013    0.19635984    0.11650000
opls_146-377    H    0.40155007    0.45295987    0.69635984    0.11650000
opls_146-378    H    0.59844993    0.45295987    0.69635984    0.11650000
opls_146-379    H    0.40155007    0.54704013    0.19635984    0.11650000
opls_146-380    H    0.69292009    0.56104994    0.12038011    0.09730000
opls_146-381    H    0.30707991    0.43895006    0.62038011    0.09730000
opls_146-382    H    0.69292009    0.43895006    0.62038011    0.09730000
opls_146-383    H    0.30707991    0.56104994    0.12038011    0.09730000
opls_146-384    H    0.73171992    0.56230017    0.03987005    0.12010000
opls_146-385    H    0.26828008    0.43769983    0.53987005    0.12010000
opls_146-386    H    0.73171992    0.43769983    0.53987005    0.12010000
opls_146-387    H    0.26828008    0.56230017    0.03987005    0.12010000
opls_146-388    H    0.92968994    0.02655980    0.42987015    0.11590000
opls_146-389    H    0.07031006    0.97344020    0.92987015    0.11590000
opls_146-390    H    0.92968994    0.97344020    0.92987015    0.11590000
opls_146-391    H    0.07031006    0.02655980    0.42987015    0.11590000
opls_146-392    H    0.89066991    0.10136993    0.43643010    0.11620000
opls_146-393    H    0.10933009    0.89863007    0.93643010    0.11620000
opls_146-394    H    0.89066991    0.89863007    0.93643010    0.11620000
opls_146-395    H    0.10933009    0.10136993    0.43643010    0.11620000
opls_146-396    H    0.82280990    0.20605988    0.39040003    0.11960000
opls_146-397    H    0.17719010    0.79394012    0.89040003    0.11960000
opls_146-398    H    0.82280990    0.79394012    0.89040003    0.11960000
opls_146-399    H    0.17719010    0.20605988    0.39040003    0.11960000
opls_146-400    H    0.78681005    0.28543004    0.38723981    0.11960000
opls_146-401    H    0.21318995    0.71456996    0.88723981    0.11960000
opls_146-402    H    0.78681005    0.71456996    0.88723981    0.11960000
opls_146-403    H    0.21318995    0.28543004    0.38723981    0.11960000
opls_146-404    H    0.60282991    0.30380990    0.86047983    0.11480000
opls_146-405    H    0.39717009    0.69619010    0.36047983    0.11480000
opls_146-406    H    0.60282991    0.69619010    0.36047983    0.11480000
opls_146-407    H    0.39717009    0.30380990    0.86047983    0.11480000
opls_146-408    H    0.64219006    0.30718999    0.77876014    0.10030000
opls_146-409    H    0.35780994    0.69281001    0.27876014    0.10030000
opls_146-410    H    0.64219006    0.69281001    0.27876014    0.10030000
opls_146-411    H    0.35780994    0.30718999    0.77876014    0.10040000
opls_146-412    H    0.69699010    0.25669991    0.63437006    0.11960000
opls_146-413    H    0.30300990    0.74330009    0.13437006    0.11960000
opls_146-414    H    0.69699010    0.74330009    0.13437006    0.11960000
opls_146-415    H    0.30300990    0.25669991    0.63437006    0.11960000
opls_146-416    H    0.73624997    0.25434982    0.55344978    0.11720000
opls_146-417    H    0.26375003    0.74565018    0.05344978    0.11720000
opls_146-418    H    0.73624997    0.74565018    0.05344978    0.11720000
opls_146-419    H    0.26375003    0.25434982    0.55344978    0.11720000
opls_146-420    H    0.93112991    0.33708004    0.93257992    0.11890000
opls_146-421    H    0.06887009    0.66291996    0.43257992    0.11890000
opls_146-422    H    0.93112991    0.66291996    0.43257992    0.11890000
opls_146-423    H    0.06887009    0.33708004    0.93257992    0.11890000
opls_146-424    H    0.89212998    0.41185992    0.93918010    0.11660000
opls_146-425    H    0.10787002    0.58814008    0.43918010    0.11660000
opls_146-426    H    0.89212998    0.58814008    0.43918010    0.11660000
opls_146-427    H    0.10787002    0.41185992    0.93918010    0.11660000
opls_146-428    H    0.82976007    0.52501012    0.89328989    0.11590000
opls_146-429    H    0.17023993    0.47498988    0.39328989    0.11590000
opls_146-430    H    0.82976007    0.47498988    0.39328989    0.11590000
opls_146-431    H    0.17023993    0.52501012    0.89328989    0.11590000
opls_146-432    H    0.79318003    0.60372002    0.88973019    0.11930000
opls_146-433    H    0.20681997    0.39627998    0.38973019    0.11930000
opls_146-434    H    0.79318003    0.39627998    0.38973019    0.11930000
opls_146-435    H    0.20681997    0.60372002    0.88973019    0.11930000
opls_547-436    H    0.61361001    0.58694011    0.54777998    0.12650000
opls_547-437    H    0.38638999    0.41305989    0.04777998    0.12650000
opls_547-438    H    0.61361001    0.41305989    0.04777998    0.12650000
opls_547-439    H    0.38638999    0.58694011    0.54777998    0.12650000
opls_547-440    H    0.97089002    0.93691008    0.04003985    0.11610000
opls_547-441    H    0.02910998    0.06308992    0.54003985    0.11610000
opls_547-442    H    0.97089002    0.06308992    0.54003985    0.11610000
opls_547-443    H    0.02910998    0.93691008    0.04003985    0.11610000
opls_144-444    H    0.34989995    0.42646992    0.31861008    0.10540000
opls_144-445    H    0.65010005    0.57353008    0.81861008    0.10540000
opls_144-446    H    0.34989995    0.57353008    0.81861008    0.10540000
opls_144-447    H    0.65010005    0.42646992    0.31861008    0.10540000
opls_144-448    H    0.15892007    0.87233011    0.07951979    0.11360000
opls_144-449    H    0.84107993    0.12766989    0.57951979    0.11350000
opls_144-450    H    0.15892007    0.12766989    0.57951979    0.11360000
opls_144-451    H    0.84107993    0.87233011    0.07951979    0.11350000
opls_547-452    H    0.47014011    0.65928002    0.25759980    0.12080000
opls_547-453    H    0.52985989    0.34071998    0.75759980    0.12070000
opls_547-454    H    0.47014011    0.34071998    0.75759980    0.12070000
opls_547-455    H    0.52985989    0.65928002    0.25759980    0.12070000
opls_547-456    H    0.47009009    0.64916999    0.72128009    0.11310000
opls_547-457    H    0.52990991    0.35083001    0.22128009    0.11310000
opls_547-458    H    0.47009009    0.35083001    0.22128009    0.11310000
opls_547-459    H    0.52990991    0.64916999    0.72128009    0.11320000
opls_547-460    H    0.11394990    0.78995003    0.50100991    0.09710000
opls_547-461    H    0.88605010    0.21004997    0.00100991    0.09710000
opls_547-462    H    0.11394990    0.21004997    0.00100991    0.09710000
opls_547-463    H    0.88605010    0.78995003    0.50100991    0.09710000
opls_547-464    H    0.11390993    0.90222017    0.50068996    0.09720000
opls_547-465    H    0.88609007    0.09777983    0.00068996    0.09710000
opls_547-466    H    0.11390993    0.09777983    0.00068996    0.09710000
opls_547-467    H    0.88609007    0.90222017    0.50068996    0.09710000
opls_750-468    N    0.33056000    0.65083001    0.79439990    -0.30170000
opls_750-469    N    0.66944000    0.34916999    0.29439990    -0.30170000
opls_750-470    N    0.33056000    0.34916999    0.29439990    -0.30170000
opls_750-471    N    0.66944000    0.65083001    0.79439990    -0.30170000
opls_750-472    N    0.84887000    0.46848997    0.99204002    -0.35480000
opls_750-473    N    0.15113000    0.53151003    0.49204002    -0.35480000
opls_750-474    N    0.84887000    0.53151003    0.49204002    -0.35470000
opls_750-475    N    0.15113000    0.46848997    0.99204002    -0.35480000
opls_750-476    N    0.33202006    0.65373003    0.17831015    -0.30170000
opls_750-477    N    0.66797994    0.34626997    0.67831015    -0.30170000
opls_750-478    N    0.33202006    0.34626997    0.67831015    -0.30170000
opls_750-479    N    0.66797994    0.65373003    0.17831015    -0.30170000
opls_750-480    N    0.84753008    0.84176020    0.98945000    -0.35480000
opls_750-481    N    0.15246992    0.15823980    0.48945000    -0.35480000
opls_750-482    N    0.84753008    0.15823980    0.48945000    -0.35470000
opls_750-483    N    0.15246992    0.84176020    0.98945000    -0.35480000
opls_542-484    N    0.95362002    0.15392981    0.01943990    -0.39830000
opls_542-485    N    0.04637998    0.84607019    0.51943990    -0.39830000
opls_542-486    N    0.95362002    0.84607019    0.51943990    -0.39820000
opls_542-487    N    0.04637998    0.15392981    0.01943990    -0.39830000
opls_542-488    N    0.45368991    0.62293009    0.48839004    -0.39800000
opls_542-489    N    0.54631009    0.37706991    0.98839004    -0.39800000
opls_542-490    N    0.45368991    0.37706991    0.98839004    -0.39800000
opls_542-491    N    0.54631009    0.62293009    0.48839004    -0.39800000
opls_542-492    N    0.50000000    0.62421014    0.39318979    -0.39270000
opls_542-493    N    0.50000000    0.37578986    0.89318979    -0.39280000
opls_542-494    N    0.50000000    0.61885993    0.58468019    -0.39780000
opls_542-495    N    0.50000000    0.38114007    0.08468019    -0.39780000
opls_542-496    N    0.00000000    0.75896991    0.51843981    -0.39770000
opls_542-497    N    0.00000000    0.24103009    0.01843981    -0.39780000
opls_542-498    N    0.00000000    0.93340987    0.51756977    -0.39800000
opls_542-499    N    0.00000000    0.06659013    0.01756977    -0.39790000
Cu2+-500    Cu    0.50000000    0.37864004    0.98945000    0.64100000
Cu2+-501    Cu    0.50000000    0.62135996    0.48945000    0.64110000
Cu2+-502    Cu    0.00000000    0.15362992    0.01560000    0.64390000
Cu2+-503    Cu    0.00000000    0.84637008    0.51560000    0.64390000
