#======================================================================
# Crystal Data Generated By AuToFF
#----------------------------------------------------------------------

data_AuToFF_phase_1

_cell_length_a                         35.1400
_cell_length_b                         16.0800
_cell_length_c                         35.1400
_cell_angle_alpha                      90.00
_cell_angle_beta                       120.00
_cell_angle_gamma                      90.00
_symmetry_space_group_name_H-M_alt     'P 1'
_symmetry_space_group_IT_number        1

loop_
_space_group_symop_operation_xyz
   'x, y, z'

loop_
   _atom_site_label
   _atom_site_type_symbol
   _atom_site_fract_x
   _atom_site_fract_y
   _atom_site_fract_z
   _atom_site_charge
opls_144-0    H    0.33373010    0.24004975    0.90893999    0.07340000
opls_146-1    H    0.36306020    0.24321020    0.98018016    0.06670000
opls_146-2    H    0.40144994    0.24230970    0.05975987    0.12670000
opls_146-3    H    0.52621998    0.24737002    0.06287992    0.11510000
opls_146-4    H    0.48781001    0.24825000    0.98319999    0.06620000
opls_144-5    H    0.55531013    0.24613993    0.13468002    0.07250000
opls_146-6    H    0.48234999    0.24364988    0.18801017    0.06680000
opls_146-7    H    0.59515001    0.24920025    0.31865006    0.06820000
opls_146-8    H    0.61276013    0.24964988    0.20658002    0.11430000
opls_144-9    H    0.66748018    0.25078980    0.33209013    0.07240000
opls_146-10    H    0.45391000    0.17270025    0.22453998    0.12670000
opls_146-11    H    0.40822001    0.17245025    0.25901999    0.11310000
opls_146-12    H    0.50407011    0.32553980    0.36502013    0.14100000
opls_146-13    H    0.55067004    0.32421020    0.33193996    0.12670000
opls_146-14    H    0.37850995    0.32979975    0.25756002    0.12940000
opls_146-15    H    0.29880007    0.33270025    0.21007994    0.10210000
opls_146-16    H    0.28491017    0.17629975    0.30344015    0.07450000
opls_146-17    H    0.36488996    0.17292973    0.35012994    0.12940000
opls_146-18    H    0.39267987    0.31887002    0.38317988    0.07960000
opls_146-19    H    0.42537992    0.31894030    0.46245991    0.07260000
opls_146-20    H    0.53747003    0.18149005    0.47471012    0.08030000
opls_146-21    H    0.50356000    0.17952985    0.39494015    0.10460000
opls_146-22    H    0.24088012    0.25760012    0.16353998    0.06830000
opls_146-23    H    0.11023999    0.25007027    0.14358016    0.06820000
opls_146-24    H    0.22056990    0.24877985    0.27480002    0.07130000
opls_146-25    H    0.44056998    0.24647015    0.52070000    0.06680000
opls_146-26    H    0.55218015    0.24937998    0.65077009    0.08030000
opls_146-27    H    0.57140002    0.24959017    0.53934016    0.09390000
opls_144-28    H    0.18266987    0.25899005    0.09057992    0.07130000
opls_146-29    H    0.15327011    0.25652985    0.01909002    0.06670000
opls_146-30    H    0.11479989    0.25669030    0.93948994    0.11100000
opls_146-31    H    0.99012014    0.25287998    0.93656014    0.07320000
opls_146-32    H    0.02859996    0.25271020    0.01621017    0.12920000
opls_144-33    H    0.96095021    0.25244030    0.86489017    0.07130000
opls_144-34    H    0.62460999    0.24610012    0.66539016    0.07180000
opls_146-35    H    0.69546991    0.20571020    0.70460004    0.11510000
opls_146-36    H    0.77528004    0.20476990    0.74600003    0.08410000
opls_146-37    H    0.77852004    0.28348010    0.62976006    0.06680000
opls_146-38    H    0.69880003    0.28434017    0.58842020    0.10860000
opls_146-39    H    0.73739994    0.21389988    0.37007991    0.07110000
opls_146-40    H    0.81717998    0.21360012    0.41142996    0.12670000
opls_146-41    H    0.82026003    0.29379975    0.29539996    0.07690000
opls_146-42    H    0.74046997    0.29440983    0.25402987    0.08680000
opls_144-43    H    0.89091999    0.25590983    0.33420993    0.07100000
opls_144-44    H    0.84815993    0.24658022    0.66757996    0.07130000
opls_146-45    H    0.94439997    0.25347015    0.46016989    0.11720000
opls_146-46    H    0.07514988    0.25107027    0.47853995    0.06680000
opls_146-47    H    0.96330012    0.25055970    0.34857008    0.11700000
opls_146-48    H    0.90328009    0.24858022    0.79309007    0.07130000
opls_146-49    H    0.03348994    0.25470025    0.81109998    0.07890000
opls_146-50    H    0.92036984    0.24812998    0.68067993    0.11970000
opls_146-51    H    0.97875990    0.31986007    0.52477990    0.11100000
opls_146-52    H    0.01250014    0.32101990    0.60446015    0.07790000
opls_146-53    H    0.12254008    0.17887998    0.61613992    0.11400000
opls_146-54    H    0.08974982    0.17871020    0.53671991    0.07260000
opls_146-55    H    0.06112000    0.32737998    0.77420016    0.09320000
opls_146-56    H    0.10682987    0.32817973    0.73975992    0.11310000
opls_146-57    H    0.01168998    0.17323010    0.63420010    0.12910000
opls_146-58    H    0.96526009    0.17338993    0.66738017    0.12920000
opls_146-59    H    0.13736997    0.17262002    0.74275018    0.11310000
opls_146-60    H    0.21700994    0.17103980    0.79036991    0.12920000
opls_146-61    H    0.23067023    0.32269030    0.69540022    0.06870000
opls_146-62    H    0.15071006    0.32487998    0.64854021    0.12920000
opls_146-63    H    0.27533008    0.24344030    0.83620995    0.07260000
opls_146-64    H    0.40570003    0.25064988    0.85545014    0.06820000
opls_146-65    H    0.29498992    0.25396020    0.72457005    0.07890000
opls_144-66    H    0.08905019    0.24902985    0.42044017    0.07240000
opls_144-67    H    0.42076014    0.25599005    0.79830002    0.07220000
opls_146-68    H    0.13089982    0.24572015    0.39194989    0.07640000
opls_146-69    H    0.17271996    0.24572015    0.35415990    0.10860000
opls_146-70    H    0.05167990    0.24369030    0.22886009    0.07440000
opls_146-71    H    0.00980997    0.24385012    0.26658009    0.11100000
opls_146-72    H    0.46344021    0.24894030    0.77001018    0.06670000
opls_146-73    H    0.50545992    0.24850000    0.73237003    0.11100000
opls_146-74    H    0.38488000    0.26762998    0.60721021    0.07580000
opls_146-75    H    0.34288988    0.26785012    0.64487993    0.11200000
opls_144-76    H    0.09476994    0.24516978    0.20058997    0.07340000
opls_144-77    H    0.42653023    0.24705970    0.57884019    0.07240000
opls_144-78    H    0.66626990    0.99004975    0.09106001    0.07340000
opls_146-79    H    0.63693980    0.99321020    0.01981984    0.06670000
opls_146-80    H    0.59855006    0.99230970    0.94024013    0.12670000
opls_146-81    H    0.47378002    0.99737002    0.93712008    0.11510000
opls_146-82    H    0.51218999    0.99825000    0.01680001    0.06620000
opls_144-83    H    0.44468987    0.99613993    0.86531998    0.07260000
opls_146-84    H    0.51765017    0.99363993    0.81199016    0.06680000
opls_146-85    H    0.40484999    0.99920025    0.68134994    0.06820000
opls_146-86    H    0.38723987    0.99964988    0.79341998    0.11430000
opls_144-87    H    0.33251998    0.00078980    0.66791020    0.07240000
opls_146-88    H    0.54609000    0.92270025    0.77546002    0.12670000
opls_146-89    H    0.59177999    0.92245025    0.74098001    0.11310000
opls_146-90    H    0.49593005    0.07553980    0.63498020    0.14100000
opls_146-91    H    0.44932996    0.07420025    0.66806004    0.10860000
opls_146-92    H    0.62149005    0.07979975    0.74243998    0.12940000
opls_146-93    H    0.70119993    0.08270025    0.78992006    0.10210000
opls_146-94    H    0.71508999    0.92629975    0.69656018    0.07450000
opls_146-95    H    0.63511004    0.92292973    0.64987006    0.12940000
opls_146-96    H    0.60732013    0.06887002    0.61682012    0.07960000
opls_146-97    H    0.57462008    0.06894030    0.53754009    0.07260000
opls_146-98    H    0.46252997    0.93149005    0.52528988    0.08030000
opls_146-99    H    0.49644016    0.92952985    0.60506018    0.10450000
opls_146-100    H    0.75911988    0.00760012    0.83646002    0.06820000
opls_146-101    H    0.88976017    0.00007027    0.85642017    0.06820000
opls_146-102    H    0.77943010    0.99877985    0.72519998    0.07140000
opls_146-103    H    0.55943002    0.99647015    0.47930000    0.06680000
opls_146-104    H    0.44782010    0.99937998    0.34924010    0.07320000
opls_146-105    H    0.42859995    0.99959017    0.46067002    0.11720000
opls_144-106    H    0.81733013    0.00899005    0.90942008    0.07130000
opls_146-107    H    0.84672989    0.00652985    0.98090998    0.06670000
opls_146-108    H    0.88519991    0.00669030    0.06051992    0.08680000
opls_146-109    H    0.00988012    0.00287998    0.06345004    0.07320000
opls_146-110    H    0.97140020    0.00271020    0.98379016    0.12930000
opls_144-111    H    0.03904996    0.00244030    0.13511016    0.07130000
opls_144-112    H    0.37539017    0.99610012    0.33461016    0.07180000
opls_146-113    H    0.30453009    0.95571020    0.29539996    0.11520000
opls_146-114    H    0.22472022    0.95476990    0.25401015    0.06630000
opls_146-115    H    0.22147996    0.03348010    0.37023994    0.06680000
opls_146-116    H    0.30120014    0.03434017    0.41158013    0.12670000
opls_146-117    H    0.26260006    0.96389988    0.62992009    0.07110000
opls_146-118    H    0.18282002    0.96360012    0.58857004    0.12670000
opls_146-119    H    0.17973997    0.04379975    0.70460004    0.07690000
opls_146-120    H    0.25953012    0.04440983    0.74597999    0.09330000
opls_144-121    H    0.10908001    0.00590983    0.66579007    0.07100000
opls_144-122    H    0.15184007    0.99658022    0.33242004    0.07130000
opls_146-123    H    0.05560012    0.00347015    0.53983997    0.07580000
opls_146-124    H    0.92485012    0.00107027    0.52146005    0.06670000
opls_146-125    H    0.03669988    0.00055970    0.65142992    0.11700000
opls_146-126    H    0.09671991    0.99858022    0.20690993    0.07130000
opls_146-127    H    0.96651006    0.00470025    0.18890002    0.07890000
opls_146-128    H    0.07963016    0.99812998    0.31932007    0.11970000
opls_146-129    H    0.02124010    0.06986007    0.47522010    0.11100000
opls_146-130    H    0.98750002    0.07101990    0.39554017    0.07760000
opls_146-131    H    0.87746001    0.92887998    0.38386994    0.11410000
opls_146-132    H    0.91025018    0.92871020    0.46328009    0.07260000
opls_146-133    H    0.93888016    0.07737998    0.22580017    0.09320000
opls_146-134    H    0.89317013    0.07817973    0.26024008    0.11310000
opls_146-135    H    0.98830999    0.92323010    0.36581008    0.14100000
opls_146-136    H    0.03474008    0.92338993    0.33262016    0.12920000
opls_146-137    H    0.86263020    0.92262002    0.25725015    0.11310000
opls_146-138    H    0.78299006    0.92103980    0.20963009    0.12930000
opls_146-139    H    0.76932993    0.07269030    0.30460011    0.06880000
opls_146-140    H    0.84929010    0.07487998    0.35146012    0.12930000
opls_146-141    H    0.72466992    0.99344030    0.16379005    0.07260000
opls_146-142    H    0.59429997    0.00064988    0.14454986    0.06820000
opls_146-143    H    0.70501008    0.00396020    0.27542995    0.07890000
opls_144-144    H    0.91094997    0.99902985    0.57956016    0.07240000
opls_144-145    H    0.57923986    0.00599005    0.20169998    0.07130000
opls_146-146    H    0.86909999    0.99572015    0.60805997    0.09570000
opls_146-147    H    0.82728004    0.99572015    0.64584010    0.11970000
opls_146-148    H    0.94832007    0.99369030    0.77115010    0.07110000
opls_146-149    H    0.99019003    0.99385012    0.73341991    0.12300000
opls_146-150    H    0.53655996    0.99894030    0.22999015    0.06670000
opls_146-151    H    0.49454008    0.99850000    0.26762997    0.10870000
opls_146-152    H    0.61512016    0.01762998    0.39279012    0.07580000
opls_146-153    H    0.65711012    0.01785012    0.35512007    0.11190000
opls_144-154    H    0.90523003    0.99516978    0.79942022    0.07220000
opls_144-155    H    0.57346994    0.99705970    0.42116014    0.07250000
opls_144-156    H    0.33373010    0.74004975    0.90893999    0.07340000
opls_146-157    H    0.36306020    0.74321020    0.98018016    0.06670000
opls_146-158    H    0.40144994    0.74232027    0.05975987    0.12670000
opls_146-159    H    0.52621998    0.74737998    0.06287992    0.11510000
opls_146-160    H    0.48781001    0.74825000    0.98319999    0.06620000
opls_144-161    H    0.55531013    0.74613993    0.13468002    0.07250000
opls_146-162    H    0.48234999    0.74364988    0.18801017    0.06680000
opls_146-163    H    0.59515001    0.74920025    0.31865006    0.06830000
opls_146-164    H    0.61276013    0.74964988    0.20658002    0.11430000
opls_144-165    H    0.66748018    0.75078980    0.33209013    0.07240000
opls_146-166    H    0.45391000    0.67270025    0.22453998    0.12670000
opls_146-167    H    0.40822001    0.67245025    0.25901999    0.11310000
opls_146-168    H    0.50407011    0.82553980    0.36502013    0.14110000
opls_146-169    H    0.55067004    0.82421020    0.33193996    0.12670000
opls_146-170    H    0.37850995    0.82979975    0.25756002    0.12940000
opls_146-171    H    0.29880007    0.83270025    0.21007994    0.10210000
opls_146-172    H    0.28491017    0.67629975    0.30344015    0.07450000
opls_146-173    H    0.36488996    0.67292973    0.35012994    0.12940000
opls_146-174    H    0.39267987    0.81887002    0.38317988    0.07960000
opls_146-175    H    0.42537992    0.81894030    0.46245991    0.07260000
opls_146-176    H    0.53747003    0.68149005    0.47471012    0.08030000
opls_146-177    H    0.50356000    0.67953980    0.39494015    0.10450000
opls_146-178    H    0.24088012    0.75760012    0.16353998    0.06820000
opls_146-179    H    0.11023999    0.75007027    0.14358016    0.06820000
opls_146-180    H    0.22056990    0.74877985    0.27480002    0.07130000
opls_146-181    H    0.44056998    0.74647015    0.52070000    0.06680000
opls_146-182    H    0.55218015    0.74937998    0.65077009    0.08030000
opls_146-183    H    0.57140002    0.74960012    0.53934016    0.09390000
opls_144-184    H    0.18266987    0.75899005    0.09057992    0.07130000
opls_146-185    H    0.15327011    0.75652985    0.01909002    0.06670000
opls_146-186    H    0.11479989    0.75669030    0.93948994    0.11100000
opls_146-187    H    0.99012014    0.75287998    0.93656014    0.07330000
opls_146-188    H    0.02859996    0.75271020    0.01621017    0.12920000
opls_144-189    H    0.96095021    0.75245025    0.86489017    0.07130000
opls_144-190    H    0.62460999    0.74610012    0.66539016    0.07190000
opls_146-191    H    0.69546991    0.70571020    0.70460004    0.11510000
opls_146-192    H    0.77527995    0.70476990    0.74599018    0.06620000
opls_146-193    H    0.77852004    0.78348010    0.62976006    0.06680000
opls_146-194    H    0.69880003    0.78435012    0.58842020    0.12670000
opls_146-195    H    0.73739994    0.71390983    0.37007991    0.07110000
opls_146-196    H    0.81717998    0.71360012    0.41142996    0.12670000
opls_146-197    H    0.82026003    0.79379975    0.29539996    0.07690000
opls_146-198    H    0.74046997    0.79440983    0.25402987    0.08680000
opls_144-199    H    0.89091999    0.75590983    0.33420993    0.07100000
opls_144-200    H    0.84815993    0.74658022    0.66757996    0.07130000
opls_146-201    H    0.94439988    0.75348010    0.46016003    0.07580000
opls_146-202    H    0.07514988    0.75108022    0.47853995    0.06670000
opls_146-203    H    0.96330012    0.75055970    0.34857008    0.11700000
opls_146-204    H    0.90328009    0.74858022    0.79309007    0.07130000
opls_146-205    H    0.03349020    0.75470025    0.81111017    0.07090000
opls_146-206    H    0.92036984    0.74812998    0.68067993    0.11970000
opls_146-207    H    0.97875990    0.81986007    0.52477990    0.11100000
opls_146-208    H    0.01250014    0.82101990    0.60446015    0.07790000
opls_146-209    H    0.12253999    0.67887998    0.61613006    0.11400000
opls_146-210    H    0.08974982    0.67871020    0.53671991    0.07260000
opls_146-211    H    0.06112000    0.82737998    0.77420016    0.09320000
opls_146-212    H    0.10682987    0.82817973    0.73975992    0.11310000
opls_146-213    H    0.01169001    0.67323010    0.63418992    0.14100000
opls_146-214    H    0.96526009    0.67338993    0.66738017    0.12920000
opls_146-215    H    0.13736997    0.67262002    0.74275018    0.11310000
opls_146-216    H    0.21700994    0.67103980    0.79036991    0.12920000
opls_146-217    H    0.23067023    0.82269030    0.69540022    0.06870000
opls_146-218    H    0.15071006    0.82487998    0.64854021    0.12920000
opls_146-219    H    0.27533008    0.74344030    0.83620995    0.07260000
opls_146-220    H    0.40570003    0.75064988    0.85545014    0.06820000
opls_146-221    H    0.29498992    0.75396020    0.72457005    0.07890000
opls_144-222    H    0.08905019    0.74902985    0.42044017    0.07240000
opls_144-223    H    0.42076014    0.75599005    0.79830002    0.07130000
opls_146-224    H    0.13089982    0.74572015    0.39194989    0.07640000
opls_146-225    H    0.17271996    0.74572015    0.35415990    0.10860000
opls_146-226    H    0.05167990    0.74369030    0.22886009    0.07430000
opls_146-227    H    0.00980997    0.74385012    0.26658009    0.11100000
opls_146-228    H    0.46344021    0.74894030    0.77001018    0.06670000
opls_146-229    H    0.50545992    0.74850000    0.73237003    0.11100000
opls_146-230    H    0.38488000    0.76762998    0.60721021    0.07580000
opls_146-231    H    0.34288988    0.76785012    0.64487993    0.11200000
opls_144-232    H    0.09477013    0.74516978    0.20058011    0.07220000
opls_144-233    H    0.42653023    0.74705970    0.57884019    0.07240000
opls_144-234    H    0.66626990    0.49004975    0.09106001    0.07340000
opls_146-235    H    0.63693980    0.49321020    0.01981984    0.06670000
opls_146-236    H    0.59855006    0.49230970    0.94024013    0.12670000
opls_146-237    H    0.47378002    0.49737002    0.93712008    0.11510000
opls_146-238    H    0.51218999    0.49825000    0.01680001    0.06620000
opls_144-239    H    0.44468987    0.49613993    0.86531998    0.07250000
opls_146-240    H    0.51765017    0.49364988    0.81199016    0.06680000
opls_146-241    H    0.40484999    0.49920025    0.68134994    0.06820000
opls_146-242    H    0.38723987    0.49964988    0.79341998    0.11430000
opls_144-243    H    0.33251998    0.50078980    0.66791020    0.07240000
opls_146-244    H    0.54609000    0.42270025    0.77546002    0.12670000
opls_146-245    H    0.59177999    0.42245025    0.74098001    0.11310000
opls_146-246    H    0.49593015    0.57553980    0.63499006    0.13970000
opls_146-247    H    0.44932996    0.57421020    0.66806004    0.12680000
opls_146-248    H    0.62149005    0.57979975    0.74243998    0.12940000
opls_146-249    H    0.70119993    0.58270025    0.78992006    0.10210000
opls_146-250    H    0.71508999    0.42629975    0.69656018    0.07450000
opls_146-251    H    0.63511004    0.42292973    0.64987006    0.12940000
opls_146-252    H    0.60732013    0.56887002    0.61682012    0.07960000
opls_146-253    H    0.57462008    0.56894030    0.53754009    0.07260000
opls_146-254    H    0.46252997    0.43149005    0.52528988    0.08030000
opls_146-255    H    0.49644016    0.42952985    0.60506018    0.10450000
opls_146-256    H    0.75911988    0.50760012    0.83646002    0.06820000
opls_146-257    H    0.88976017    0.50007027    0.85642017    0.06820000
opls_146-258    H    0.77943010    0.49877985    0.72519998    0.07130000
opls_146-259    H    0.55943002    0.49647015    0.47930000    0.06680000
opls_146-260    H    0.44782010    0.49937998    0.34924010    0.07320000
opls_146-261    H    0.42859995    0.49960012    0.46067002    0.11720000
opls_144-262    H    0.81733013    0.50899005    0.90942008    0.07130000
opls_146-263    H    0.84672989    0.50652985    0.98090998    0.06670000
opls_146-264    H    0.88519991    0.50669030    0.06051992    0.08680000
opls_146-265    H    0.00988012    0.50287998    0.06345004    0.07320000
opls_146-266    H    0.97140020    0.50271020    0.98379016    0.12920000
opls_144-267    H    0.03904996    0.50245025    0.13511016    0.07130000
opls_144-268    H    0.37539017    0.49610012    0.33461016    0.07180000
opls_146-269    H    0.30453009    0.45571020    0.29539996    0.11510000
opls_146-270    H    0.22472022    0.45476990    0.25401015    0.09320000
opls_146-271    H    0.22147996    0.53348010    0.37023994    0.06680000
opls_146-272    H    0.30120014    0.53434017    0.41158013    0.12670000
opls_146-273    H    0.26260006    0.46389988    0.62992009    0.07110000
opls_146-274    H    0.18282002    0.46360012    0.58857004    0.12670000
opls_146-275    H    0.17973997    0.54379975    0.70460004    0.07690000
opls_146-276    H    0.25953012    0.54440983    0.74597999    0.09320000
opls_144-277    H    0.10908001    0.50590983    0.66579007    0.07100000
opls_144-278    H    0.15184007    0.49658022    0.33242004    0.07130000
opls_146-279    H    0.05560012    0.50347015    0.53983997    0.07580000
opls_146-280    H    0.92485012    0.50107027    0.52146005    0.06670000
opls_146-281    H    0.03669988    0.50055970    0.65142992    0.11700000
opls_146-282    H    0.09671991    0.49858022    0.20690993    0.07130000
opls_146-283    H    0.96651006    0.50470025    0.18890002    0.07890000
opls_146-284    H    0.07963016    0.49812998    0.31932007    0.11970000
opls_146-285    H    0.02124010    0.56986007    0.47522010    0.11100000
opls_146-286    H    0.98750002    0.57101990    0.39554017    0.07760000
opls_146-287    H    0.87746001    0.42887998    0.38386994    0.11400000
opls_146-288    H    0.91025018    0.42871020    0.46328009    0.07270000
opls_146-289    H    0.93888016    0.57737998    0.22580017    0.09320000
opls_146-290    H    0.89317013    0.57817973    0.26024008    0.11310000
opls_146-291    H    0.98830999    0.42323010    0.36581008    0.14100000
opls_146-292    H    0.03474008    0.42338993    0.33262016    0.12920000
opls_146-293    H    0.86263020    0.42262002    0.25725015    0.11310000
opls_146-294    H    0.78299006    0.42103980    0.20963009    0.12920000
opls_146-295    H    0.76932993    0.57269030    0.30460011    0.06870000
opls_146-296    H    0.84929010    0.57487998    0.35146012    0.12920000
opls_146-297    H    0.72466992    0.49344030    0.16379005    0.07270000
opls_146-298    H    0.59429997    0.50064988    0.14454986    0.06820000
opls_146-299    H    0.70501008    0.50396020    0.27542995    0.07890000
opls_144-300    H    0.91094997    0.49902985    0.57956016    0.07240000
opls_144-301    H    0.57923986    0.50599005    0.20169998    0.07220000
opls_146-302    H    0.86909999    0.49572015    0.60805997    0.09570000
opls_146-303    H    0.82728004    0.49572015    0.64584010    0.11970000
opls_146-304    H    0.94832007    0.49369030    0.77115010    0.07110000
opls_146-305    H    0.99019003    0.49385012    0.73341991    0.12300000
opls_146-306    H    0.53655996    0.49894030    0.22999015    0.06670000
opls_146-307    H    0.49454008    0.49850000    0.26762997    0.10860000
opls_146-308    H    0.61512016    0.51762998    0.39279012    0.07580000
opls_146-309    H    0.65711012    0.51785012    0.35512007    0.11190000
opls_144-310    H    0.90523003    0.49516978    0.79942022    0.07220000
opls_144-311    H    0.57346994    0.49705970    0.42116014    0.07250000
opls_145-312    C    0.19742012    0.02564988    0.68747998    -0.16700000
opls_145-313    C    0.24303005    0.02616978    0.71115002    -0.16600000
opls_145-314    C    0.26833986    0.00449005    0.69182998    0.20280000
opls_145-315    C    0.24497991    0.98212998    0.64707991    -0.16600000
opls_145-316    C    0.19939007    0.98170025    0.62341019    -0.16400000
opls_145-317    C    0.23914010    0.01578980    0.35304003    -0.16330000
opls_145-318    C    0.28470993    0.01654975    0.37669989    -0.15640000
opls_145-319    C    0.31007010    0.99585012    0.35732004    0.21560000
opls_145-320    C    0.28682018    0.97351990    0.31256011    -0.16280000
opls_145-321    C    0.24119005    0.97273010    0.28889006    -0.16800000
opls_142-322    C    0.38507001    0.99734017    0.36963006    0.07570000
opls_700-323    C    0.43213001    0.99821020    0.40110009    0.07060000
opls_142-324    C    0.34281990    0.00203980    0.70307008    0.07640000
opls_700-325    C    0.39003994    0.99994030    0.73376001    0.08210000
opls_145-326    C    0.45031987    0.99840983    0.44657998    -0.13860000
opls_700-327    C    0.49644993    0.99844030    0.47619013    0.07120000
opls_145-328    C    0.52370996    0.99785012    0.45699989    -0.13300000
opls_700-329    C    0.50734012    0.99912002    0.41193009    0.05420000
opls_145-330    C    0.46150006    0.99894030    0.38502004    -0.15310000
opls_145-331    C    0.40926005    0.99864988    0.77962995    -0.15770000
opls_700-332    C    0.45474005    0.99603980    0.80885005    0.06530000
opls_145-333    C    0.48181020    0.99459017    0.79040015    -0.11700000
opls_700-334    C    0.46499007    0.99680970    0.74417992    0.06780000
opls_145-335    C    0.41851019    0.99890983    0.71713022    -0.13860000
opls_700-336    C    0.51525021    0.99996020    0.52335016    0.07110000
opls_700-337    C    0.49308997    0.99825000    0.72510994    0.07160000
opls_145-338    C    0.49430990    0.96292973    0.54492998    -0.12050000
opls_145-339    C    0.51353994    0.96189988    0.59023013    -0.17000000
opls_916-340    C    0.55473999    0.99901990    0.61772015    0.19380000
opls_145-341    C    0.57560990    0.03691978    0.59688001    -0.15640000
opls_145-342    C    0.55680997    0.03733022    0.55168994    -0.12070000
opls_145-343    C    0.53464006    0.95729975    0.74461991    -0.08140000
opls_145-344    C    0.56050014    0.95712998    0.72516022    -0.16280000
opls_916-345    C    0.54748008    0.99863993    0.68514001    0.19380000
opls_145-346    C    0.50684995    0.04047015    0.66574998    -0.16530000
opls_145-347    C    0.48062020    0.04004975    0.68474011    -0.12450000
opls_916-348    C    0.62191019    0.00075995    0.69251019    0.18390000
opls_145-349    C    0.64215019    0.04487002    0.73250016    -0.16530000
opls_145-350    C    0.68730014    0.04687002    0.75917000    -0.11770000
opls_700-351    C    0.71605996    0.00457027    0.74801008    0.07160000
opls_145-352    C    0.69502001    0.96137002    0.70705994    -0.14940000
opls_145-353    C    0.64977015    0.95915983    0.68067007    -0.16170000
opls_700-354    C    0.76308008    0.00365983    0.77698998    0.06900000
opls_145-355    C    0.78177997    0.00599005    0.82345008    -0.13110000
opls_700-356    C    0.82679997    0.00445025    0.85263010    0.07110000
opls_145-357    C    0.85402003    0.00108022    0.83409015    -0.16200000
opls_700-358    C    0.83843997    0.99892973    0.78872001    0.07250000
opls_145-359    C    0.79306016    0.99983022    0.76097007    -0.13420000
opls_142-360    C    0.53846991    0.00052985    0.39596998    0.07750000
opls_142-361    C    0.87033993    0.99601990    0.77372994    0.07740000
opls_145-362    C    0.55079991    0.00780970    0.33348997    0.21550000
opls_145-363    C    0.88375003    0.99479975    0.71173000    0.21560000
opls_145-364    C    0.59700021    0.01347015    0.35678015    -0.16330000
opls_145-365    C    0.62111008    0.01371020    0.33531008    -0.16400000
opls_145-366    C    0.60086995    0.00845025    0.28931987    0.21580000
opls_145-367    C    0.55465012    0.00337998    0.26600997    -0.16680000
opls_145-368    C    0.53053020    0.00317973    0.28747018    -0.16330000
opls_145-369    C    0.93004990    0.99409017    0.73505995    -0.16800000
opls_145-370    C    0.95412010    0.99412998    0.71352022    -0.16530000
opls_145-371    C    0.93369004    0.99487002    0.66741993    0.20750000
opls_145-372    C    0.88739002    0.99517973    0.64413007    -0.16530000
opls_145-373    C    0.86334989    0.99513993    0.66565995    -0.16400000
opls_142-374    C    0.61415001    0.00608022    0.22731994    0.07740000
opls_142-375    C    0.94596994    0.99823010    0.60481011    0.07750000
opls_142-376    C    0.35896007    0.24379975    0.89918024    0.07740000
opls_145-377    C    0.42201005    0.24562998    0.97426996    0.21670000
opls_145-378    C    0.39915004    0.24400000    0.99768994    -0.16680000
opls_145-379    C    0.42106992    0.24351990    0.04329010    -0.16510000
opls_145-380    C    0.46718986    0.24462998    0.06868990    0.21740000
opls_145-381    C    0.49010995    0.24632027    0.04530015    -0.16520000
opls_145-382    C    0.46816022    0.24682027    0.99966023    -0.16780000
opls_142-383    C    0.52975019    0.24525000    0.14407010    0.07730000
opls_142-384    C    0.15734006    0.25626990    0.10022992    0.07730000
opls_145-385    C    0.09434988    0.25469030    0.02506003    0.21810000
opls_145-386    C    0.11717989    0.25582027    0.00159995    -0.16870000
opls_145-387    C    0.09521011    0.25588993    0.95598994    -0.16510000
opls_145-388    C    0.04909010    0.25486007    0.93064008    0.21810000
opls_145-389    C    0.02622019    0.25376990    0.95408011    -0.16280000
opls_145-390    C    0.04819999    0.25367973    0.99971017    -0.16870000
opls_142-391    C    0.98640012    0.25337002    0.85536997    0.07810000
opls_145-392    C    0.78419009    0.24376990    0.69175013    0.20750000
opls_145-393    C    0.82588990    0.25310012    0.35723001    0.21330000
opls_142-394    C    0.90072991    0.25364988    0.36926006    0.07680000
opls_700-395    C    0.94781007    0.25300000    0.40057006    0.07250000
opls_142-396    C    0.85856005    0.24553980    0.70277007    0.07630000
opls_700-397    C    0.90581017    0.24779975    0.73331016    0.08210000
opls_145-398    C    0.96610010    0.25360012    0.44604995    -0.12840000
opls_700-399    C    0.01223002    0.25199005    0.47556021    0.07070000
opls_145-400    C    0.03941000    0.25098010    0.45629011    -0.13300000
opls_700-401    C    0.02294004    0.25015983    0.41119994    0.05410000
opls_145-402    C    0.97708999    0.25129975    0.38437007    -0.16200000
opls_145-403    C    0.92519003    0.24944030    0.77918995    -0.15230000
opls_700-404    C    0.97070011    0.25224005    0.80826022    0.07090000
opls_145-405    C    0.99762008    0.25355970    0.78964995    -0.11690000
opls_700-406    C    0.98064003    0.25115983    0.74340015    0.06900000
opls_145-407    C    0.93413008    0.24865983    0.71649010    -0.13270000
opls_700-408    C    0.03101988    0.24984017    0.52271990    0.07150000
opls_700-409    C    0.00862001    0.25032027    0.72422009    0.07160000
opls_145-410    C    0.01031015    0.28757027    0.54436019    -0.12060000
opls_145-411    C    0.02947985    0.28824005    0.58961992    -0.16710000
opls_916-412    C    0.07044994    0.25025000    0.61705014    0.19560000
opls_145-413    C    0.09104009    0.21146020    0.59615019    -0.16400000
opls_145-414    C    0.07221003    0.21103980    0.55094993    -0.12060000
opls_145-415    C    0.04986992    0.29233022    0.74350990    -0.12770000
opls_145-416    C    0.07577005    0.29277985    0.72410015    -0.16280000
opls_916-417    C    0.06303993    0.25069030    0.68430011    0.19380000
opls_145-418    C    0.02256994    0.20826990    0.66496003    -0.16540000
opls_145-419    C    0.99635991    0.20819030    0.68396001    -0.11950000
opls_916-420    C    0.13761024    0.24923010    0.69193021    0.19380000
opls_145-421    C    0.15793000    0.20685012    0.73245021    -0.16330000
opls_145-422    C    0.20309008    0.20566978    0.75925017    -0.11950000
opls_700-423    C    0.23179000    0.24699005    0.74768017    0.07160000
opls_145-424    C    0.21065997    0.28845025    0.70624994    -0.12370000
opls_145-425    C    0.16541989    0.28988993    0.67972994    -0.16780000
opls_700-426    C    0.27886998    0.24820025    0.77652994    0.06780000
opls_145-427    C    0.29782001    0.24530970    0.82299004    -0.15140000
opls_700-428    C    0.65712017    0.99640983    0.14800016    0.07110000
opls_145-429    C    0.36993006    0.25007027    0.83328015    -0.16160000
opls_700-430    C    0.35411004    0.25297015    0.78788997    0.07440000
opls_145-431    C    0.30869995    0.25246020    0.76034014    -0.13980000
opls_145-432    C    0.80257988    0.27564988    0.31252002    -0.16710000
opls_145-433    C    0.75696995    0.27616978    0.28884998    -0.16330000
opls_145-434    C    0.73166014    0.25449005    0.30817002    0.20280000
opls_145-435    C    0.75502009    0.23212998    0.35292009    -0.16600000
opls_145-436    C    0.80061009    0.23170025    0.37659014    -0.16390000
opls_145-437    C    0.76085990    0.26578980    0.64695997    -0.16530000
opls_145-438    C    0.71529007    0.26654975    0.62330011    -0.15640000
opls_145-439    C    0.68992990    0.24585012    0.64267996    0.21560000
opls_145-440    C    0.71317998    0.22351990    0.68744022    -0.16280000
opls_145-441    C    0.75880995    0.22273010    0.71110994    -0.16780000
opls_142-442    C    0.61492999    0.24734017    0.63036994    0.07570000
opls_700-443    C    0.56786999    0.24821020    0.59889991    0.07060000
opls_142-444    C    0.65718010    0.25203980    0.29692992    0.07630000
opls_700-445    C    0.60996006    0.24994030    0.26623999    0.08210000
opls_145-446    C    0.54968013    0.24840983    0.55342002    -0.13420000
opls_700-447    C    0.50355023    0.24844030    0.52381020    0.07120000
opls_145-448    C    0.47629004    0.24785012    0.54300011    -0.13280000
opls_700-449    C    0.49265988    0.24912002    0.58806991    0.05420000
opls_145-450    C    0.53849994    0.24894030    0.61497996    -0.16150000
opls_145-451    C    0.59073995    0.24864988    0.22037005    -0.15770000
opls_700-452    C    0.54525995    0.24603980    0.19114995    0.06530000
opls_145-453    C    0.51818996    0.24459017    0.20960018    -0.11700000
opls_700-454    C    0.53500993    0.24680970    0.25582008    0.06780000
opls_145-455    C    0.58148998    0.24890983    0.28287011    -0.13860000
opls_700-456    C    0.48474996    0.24996020    0.47665017    0.07110000
opls_700-457    C    0.50691003    0.24825000    0.27489006    0.07160000
opls_145-458    C    0.50569010    0.21292973    0.45507002    -0.12060000
opls_145-459    C    0.48646023    0.21189988    0.40977020    -0.17000000
opls_916-460    C    0.44526018    0.24901990    0.38228018    0.19380000
opls_145-461    C    0.42439010    0.28691978    0.40311999    -0.15640000
opls_145-462    C    0.44319003    0.28733022    0.44831006    -0.12070000
opls_145-463    C    0.46535994    0.20729975    0.25538009    -0.08140000
opls_145-464    C    0.43950002    0.20712998    0.27484011    -0.16280000
opls_916-465    C    0.45251992    0.24863993    0.31485999    0.19390000
opls_145-466    C    0.49315005    0.29047015    0.33425002    -0.16530000
opls_145-467    C    0.51938009    0.29004975    0.31525989    -0.11770000
opls_916-468    C    0.37808998    0.25075995    0.30749014    0.18400000
opls_145-469    C    0.35784997    0.29487002    0.26750017    -0.16530000
opls_145-470    C    0.31269986    0.29687002    0.24083000    -0.11770000
opls_700-471    C    0.28394004    0.25457027    0.25198992    0.07160000
opls_145-472    C    0.30497999    0.21137002    0.29294006    -0.14940000
opls_145-473    C    0.35022985    0.20915983    0.31932993    -0.16170000
opls_700-474    C    0.23691992    0.25365983    0.22301002    0.06900000
opls_145-475    C    0.21822003    0.25599005    0.17654992    -0.13120000
opls_700-476    C    0.17320003    0.25445025    0.14736990    0.07110000
opls_145-477    C    0.14598013    0.25108022    0.16591017    -0.16200000
opls_700-478    C    0.16156003    0.24892973    0.21127999    0.07250000
opls_145-479    C    0.20693984    0.24983022    0.23902993    -0.13420000
opls_142-480    C    0.46153009    0.25052985    0.60403002    0.07750000
opls_142-481    C    0.12966007    0.24601990    0.22627006    0.07770000
opls_145-482    C    0.44920009    0.25780970    0.66651003    0.21550000
opls_145-483    C    0.11624997    0.24479975    0.28827000    0.21560000
opls_145-484    C    0.40299996    0.26347015    0.64322018    -0.16330000
opls_145-485    C    0.37888992    0.26372015    0.66468992    -0.16400000
opls_145-486    C    0.39913005    0.25845025    0.71068013    0.21580000
opls_145-487    C    0.44534988    0.25337998    0.73399003    -0.16680000
opls_145-488    C    0.46946997    0.25317973    0.71253014    -0.16330000
opls_145-489    C    0.06995010    0.24409017    0.26494005    -0.16870000
opls_145-490    C    0.04588007    0.24412998    0.28648011    -0.16530000
opls_145-491    C    0.06630996    0.24487002    0.33258007    0.20750000
opls_145-492    C    0.11260998    0.24517973    0.35586993    -0.16530000
opls_145-493    C    0.13664015    0.24514988    0.33434005    -0.16400000
opls_142-494    C    0.38585008    0.25608022    0.77268992    0.07740000
opls_142-495    C    0.05403006    0.24823010    0.39518989    0.07750000
opls_142-496    C    0.64104009    0.99379975    0.10082009    0.07740000
opls_145-497    C    0.57798995    0.99562998    0.02573004    0.21670000
opls_145-498    C    0.60084996    0.99400000    0.00231006    -0.16680000
opls_145-499    C    0.57893024    0.99351990    0.95671023    -0.16510000
opls_145-500    C    0.53281014    0.99462998    0.93131010    0.21740000
opls_145-501    C    0.50989022    0.99632027    0.95470018    -0.16520000
opls_145-502    C    0.53183994    0.99682027    0.00034010    -0.16780000
opls_142-503    C    0.47024998    0.99525000    0.85593023    0.07730000
opls_142-504    C    0.84265994    0.00626990    0.89977008    0.07730000
opls_145-505    C    0.90565012    0.00469030    0.97493997    0.21800000
opls_145-506    C    0.88282011    0.00582027    0.99840005    -0.16870000
opls_145-507    C    0.90478989    0.00588993    0.04401006    -0.16530000
opls_145-508    C    0.95090990    0.00486007    0.06935992    0.21800000
opls_145-509    C    0.97377981    0.00376990    0.04591989    -0.16280000
opls_145-510    C    0.95180017    0.00367973    0.00029015    -0.16870000
opls_142-511    C    0.01359988    0.00337002    0.14463003    0.07800000
opls_145-512    C    0.21581010    0.99376990    0.30824001    0.20760000
opls_145-513    C    0.17411010    0.00310012    0.64276999    0.21340000
opls_142-514    C    0.09927009    0.00364988    0.63073994    0.07680000
opls_700-515    C    0.05218993    0.00300000    0.59942994    0.07250000
opls_142-516    C    0.14143995    0.99552985    0.29722993    0.07630000
opls_700-517    C    0.09418999    0.99779975    0.26669017    0.08210000
opls_145-518    C    0.03389990    0.00360012    0.55395005    -0.13470000
opls_700-519    C    0.98777015    0.00199005    0.52444012    0.07080000
opls_145-520    C    0.96059000    0.00098010    0.54370989    -0.13300000
opls_700-521    C    0.97705996    0.00015983    0.58880006    0.05410000
opls_145-522    C    0.02291001    0.00129975    0.61562993    -0.16200000
opls_145-523    C    0.07480997    0.99944030    0.22081005    -0.15230000
opls_700-524    C    0.02930005    0.00224005    0.19174011    0.07090000
opls_145-525    C    0.00237992    0.00355970    0.21035005    -0.11700000
opls_700-526    C    0.01936013    0.00115983    0.25660018    0.06900000
opls_145-527    C    0.06586992    0.99865983    0.28350990    -0.13270000
opls_700-528    C    0.96898012    0.99984017    0.47728010    0.07150000
opls_700-529    C    0.99137999    0.00032027    0.27577991    0.07160000
opls_145-530    C    0.98969002    0.03757027    0.45564014    -0.12060000
opls_145-531    C    0.97052015    0.03824005    0.41038008    -0.16710000
opls_916-532    C    0.92955022    0.00025000    0.38295019    0.19560000
opls_145-533    C    0.90896007    0.96146020    0.40385014    -0.16400000
opls_145-534    C    0.92778997    0.96103980    0.44905007    -0.12050000
opls_145-535    C    0.95013008    0.04233022    0.25649010    -0.12770000
opls_145-536    C    0.92423011    0.04277985    0.27590018    -0.16650000
opls_916-537    C    0.93696005    0.00069030    0.31571007    0.19390000
opls_145-538    C    0.97743006    0.95826990    0.33503997    -0.16510000
opls_145-539    C    0.00364009    0.95819030    0.31603999    -0.11950000
opls_916-540    C    0.86238993    0.99923010    0.30807012    0.19380000
opls_145-541    C    0.84207016    0.95685012    0.26755012    -0.16330000
opls_145-542    C    0.79691008    0.95566978    0.24075015    -0.11950000
opls_700-543    C    0.76821017    0.99699005    0.25232016    0.07160000
opls_145-544    C    0.78934003    0.03845025    0.29375006    -0.12370000
opls_145-545    C    0.83458011    0.03988993    0.32027006    -0.16780000
opls_700-546    C    0.72113002    0.99820025    0.22347006    0.06780000
opls_145-547    C    0.70217999    0.99530970    0.17700996    -0.15140000
opls_700-548    C    0.34288000    0.24640983    0.85200017    0.07110000
opls_145-549    C    0.63007010    0.00007027    0.16672017    -0.16160000
opls_700-550    C    0.64588996    0.00297015    0.21211003    0.07250000
opls_145-551    C    0.69130005    0.00246020    0.23965986    -0.13980000
opls_145-552    C    0.19742012    0.52564988    0.68747998    -0.16700000
opls_145-553    C    0.24303005    0.52616978    0.71115002    -0.16590000
opls_145-554    C    0.26833986    0.50449005    0.69182998    0.20290000
opls_145-555    C    0.24497991    0.48212998    0.64707991    -0.16600000
opls_145-556    C    0.19939007    0.48170025    0.62341019    -0.16400000
opls_145-557    C    0.23914010    0.51578980    0.35304003    -0.16520000
opls_145-558    C    0.28470993    0.51654975    0.37669989    -0.15640000
opls_145-559    C    0.31007010    0.49585012    0.35732004    0.21560000
opls_145-560    C    0.28682018    0.47351990    0.31256011    -0.16280000
opls_145-561    C    0.24119008    0.47273010    0.28887988    -0.17000000
opls_142-562    C    0.38507001    0.49734017    0.36963006    0.07570000
opls_700-563    C    0.43213001    0.49821020    0.40110009    0.07060000
opls_142-564    C    0.34281990    0.50203980    0.70307008    0.07630000
opls_700-565    C    0.39003994    0.49994030    0.73376001    0.08210000
opls_145-566    C    0.45031987    0.49840983    0.44657998    -0.13860000
opls_700-567    C    0.49644993    0.49844030    0.47619013    0.07120000
opls_145-568    C    0.52370996    0.49785012    0.45699989    -0.13300000
opls_700-569    C    0.50734012    0.49912002    0.41193009    0.05420000
opls_145-570    C    0.46150006    0.49894030    0.38502004    -0.15310000
opls_145-571    C    0.40926005    0.49864988    0.77962995    -0.15770000
opls_700-572    C    0.45474005    0.49603980    0.80885005    0.06530000
opls_145-573    C    0.48181020    0.49459017    0.79040015    -0.11700000
opls_700-574    C    0.46499007    0.49680970    0.74417992    0.06900000
opls_145-575    C    0.41851019    0.49890983    0.71713022    -0.13860000
opls_700-576    C    0.51525021    0.49996020    0.52335016    0.07110000
opls_700-577    C    0.49308001    0.49825000    0.72510994    0.07160000
opls_145-578    C    0.49430990    0.46292973    0.54492998    -0.12060000
opls_145-579    C    0.51353994    0.46189988    0.59023013    -0.17000000
opls_916-580    C    0.55473999    0.49901990    0.61772015    0.19380000
opls_145-581    C    0.57560990    0.53691978    0.59688001    -0.15630000
opls_145-582    C    0.55680997    0.53733022    0.55168994    -0.12070000
opls_145-583    C    0.53464006    0.45729975    0.74461991    -0.12760000
opls_145-584    C    0.56050014    0.45712998    0.72516022    -0.16280000
opls_916-585    C    0.54748008    0.49863993    0.68514001    0.19380000
opls_145-586    C    0.50684995    0.54047015    0.66574998    -0.16510000
opls_145-587    C    0.48062020    0.54004975    0.68474011    -0.11770000
opls_916-588    C    0.62191019    0.50075995    0.69251019    0.18400000
opls_145-589    C    0.64215019    0.54487002    0.73250016    -0.16530000
opls_145-590    C    0.68730014    0.54687002    0.75917000    -0.11770000
opls_700-591    C    0.71605996    0.50457027    0.74801008    0.07160000
opls_145-592    C    0.69502001    0.46137002    0.70705994    -0.14930000
opls_145-593    C    0.64977015    0.45915983    0.68067007    -0.16170000
opls_700-594    C    0.76308008    0.50365983    0.77698998    0.06900000
opls_145-595    C    0.78177997    0.50599005    0.82345008    -0.13130000
opls_700-596    C    0.82679997    0.50445025    0.85263010    0.07120000
opls_145-597    C    0.85402003    0.50109017    0.83409015    -0.16200000
opls_700-598    C    0.83843997    0.49894030    0.78872001    0.07250000
opls_145-599    C    0.79306016    0.49983022    0.76097007    -0.13420000
opls_142-600    C    0.53846991    0.50052985    0.39596998    0.07750000
opls_142-601    C    0.87033993    0.49601990    0.77372994    0.07740000
opls_145-602    C    0.55079991    0.50780970    0.33348997    0.21550000
opls_145-603    C    0.88375003    0.49479975    0.71173000    0.21560000
opls_145-604    C    0.59700021    0.51347015    0.35678015    -0.16330000
opls_145-605    C    0.62111008    0.51371020    0.33531008    -0.16400000
opls_145-606    C    0.60086995    0.50845025    0.28931987    0.21580000
opls_145-607    C    0.55465012    0.50337998    0.26600997    -0.16680000
opls_145-608    C    0.53053020    0.50317973    0.28747018    -0.16330000
opls_145-609    C    0.93004990    0.49409017    0.73505995    -0.16790000
opls_145-610    C    0.95412010    0.49412998    0.71352022    -0.16530000
opls_145-611    C    0.93369004    0.49487002    0.66741993    0.20750000
opls_145-612    C    0.88739002    0.49517973    0.64413007    -0.16530000
opls_145-613    C    0.86334989    0.49514988    0.66565995    -0.16390000
opls_142-614    C    0.61414992    0.50608022    0.22731008    0.07740000
opls_142-615    C    0.94596994    0.49823010    0.60481011    0.07750000
opls_142-616    C    0.35896007    0.74379975    0.89918024    0.07740000
opls_145-617    C    0.42201005    0.74562998    0.97426996    0.21670000
opls_145-618    C    0.39915004    0.74400000    0.99768994    -0.16680000
opls_145-619    C    0.42106992    0.74351990    0.04329010    -0.16500000
opls_145-620    C    0.46718986    0.74462998    0.06868990    0.21740000
opls_145-621    C    0.49010995    0.74632027    0.04530015    -0.16510000
opls_145-622    C    0.46816022    0.74683022    0.99966023    -0.16780000
opls_142-623    C    0.52975019    0.74525000    0.14407010    0.07730000
opls_142-624    C    0.15734006    0.75626990    0.10022992    0.07730000
opls_145-625    C    0.09434988    0.75469030    0.02506003    0.21800000
opls_145-626    C    0.11717989    0.75582027    0.00159995    -0.16870000
opls_145-627    C    0.09521011    0.75589988    0.95598994    -0.16510000
opls_145-628    C    0.04909010    0.75486007    0.93064008    0.21820000
opls_145-629    C    0.02622019    0.75376990    0.95408011    -0.16280000
opls_145-630    C    0.04819999    0.75367973    0.99971017    -0.16860000
opls_142-631    C    0.98640012    0.75337002    0.85536997    0.07800000
opls_145-632    C    0.78419009    0.74376990    0.69175013    0.20750000
opls_145-633    C    0.82588990    0.75310012    0.35723001    0.21330000
opls_142-634    C    0.90072991    0.75364988    0.36926006    0.07680000
opls_700-635    C    0.94781007    0.75300000    0.40057006    0.07250000
opls_142-636    C    0.85856005    0.74553980    0.70277007    0.07630000
opls_700-637    C    0.90581017    0.74779975    0.73331016    0.08210000
opls_145-638    C    0.96610010    0.75360012    0.44604995    -0.13470000
opls_700-639    C    0.01223002    0.75199005    0.47556021    0.07070000
opls_145-640    C    0.03941000    0.75098010    0.45629011    -0.13300000
opls_700-641    C    0.02294004    0.75015983    0.41119994    0.05420000
opls_145-642    C    0.97708999    0.75129975    0.38437007    -0.16200000
opls_145-643    C    0.92519003    0.74944030    0.77918995    -0.15230000
opls_700-644    C    0.97070011    0.75224005    0.80826022    0.07090000
opls_145-645    C    0.99762008    0.75355970    0.78964995    -0.11700000
opls_700-646    C    0.98064003    0.75115983    0.74340015    0.06900000
opls_145-647    C    0.93413008    0.74865983    0.71649010    -0.13270000
opls_700-648    C    0.03101988    0.74985012    0.52271990    0.07150000
opls_700-649    C    0.00862001    0.75032027    0.72422009    0.07160000
opls_145-650    C    0.01031015    0.78757027    0.54436019    -0.12060000
opls_145-651    C    0.02947985    0.78824005    0.58961992    -0.16700000
opls_916-652    C    0.07044994    0.75025995    0.61705014    0.19560000
opls_145-653    C    0.09104009    0.71146020    0.59615019    -0.16400000
opls_145-654    C    0.07221003    0.71104975    0.55094993    -0.12060000
opls_145-655    C    0.04986992    0.79233022    0.74350990    -0.12760000
opls_145-656    C    0.07577005    0.79277985    0.72410015    -0.16280000
opls_916-657    C    0.06303993    0.75069030    0.68430011    0.19380000
opls_145-658    C    0.02256994    0.70826990    0.66496003    -0.16510000
opls_145-659    C    0.99635991    0.70819030    0.68396001    -0.11950000
opls_916-660    C    0.13761024    0.74923010    0.69193021    0.19380000
opls_145-661    C    0.15793000    0.70685012    0.73245021    -0.16330000
opls_145-662    C    0.20309008    0.70566978    0.75925017    -0.11950000
opls_700-663    C    0.23179000    0.74699005    0.74768017    0.07160000
opls_145-664    C    0.21065997    0.78845025    0.70624994    -0.12370000
opls_145-665    C    0.16541989    0.78988993    0.67972994    -0.16780000
opls_700-666    C    0.27886998    0.74820025    0.77652994    0.06780000
opls_145-667    C    0.29782001    0.74530970    0.82299004    -0.15140000
opls_700-668    C    0.65712017    0.49640983    0.14800016    0.07110000
opls_145-669    C    0.36993006    0.75007027    0.83328015    -0.16150000
opls_700-670    C    0.35411004    0.75297015    0.78788997    0.07250000
opls_145-671    C    0.30869995    0.75246020    0.76034014    -0.13990000
opls_145-672    C    0.80257988    0.77564988    0.31252002    -0.16710000
opls_145-673    C    0.75696995    0.77616978    0.28884998    -0.16330000
opls_145-674    C    0.73166014    0.75449005    0.30817002    0.20280000
opls_145-675    C    0.75502009    0.73212998    0.35292009    -0.16600000
opls_145-676    C    0.80061009    0.73170025    0.37659014    -0.16400000
opls_145-677    C    0.76085990    0.76578980    0.64695997    -0.16530000
opls_145-678    C    0.71529007    0.76654975    0.62330011    -0.15640000
opls_145-679    C    0.68992990    0.74585012    0.64267996    0.21560000
opls_145-680    C    0.71317998    0.72351990    0.68744022    -0.16280000
opls_145-681    C    0.75880995    0.72273010    0.71110994    -0.17000000
opls_142-682    C    0.61492999    0.74734017    0.63036994    0.07570000
opls_700-683    C    0.56786999    0.74821020    0.59889991    0.07060000
opls_142-684    C    0.65718010    0.75203980    0.29692992    0.07630000
opls_700-685    C    0.60996006    0.74994030    0.26623999    0.08210000
opls_145-686    C    0.54968013    0.74840983    0.55342002    -0.13420000
opls_700-687    C    0.50355023    0.74844030    0.52381020    0.07120000
opls_145-688    C    0.47629004    0.74785012    0.54300011    -0.13290000
opls_700-689    C    0.49265988    0.74912002    0.58806991    0.05420000
opls_145-690    C    0.53849994    0.74894030    0.61497996    -0.16160000
opls_145-691    C    0.59073995    0.74864988    0.22037005    -0.15770000
opls_700-692    C    0.54525995    0.74603980    0.19114995    0.06530000
opls_145-693    C    0.51818996    0.74459017    0.20960018    -0.11700000
opls_700-694    C    0.53500993    0.74680970    0.25582008    0.06780000
opls_145-695    C    0.58148998    0.74890983    0.28287011    -0.13860000
opls_700-696    C    0.48474996    0.74996020    0.47665017    0.07110000
opls_700-697    C    0.50691003    0.74825000    0.27489006    0.07160000
opls_145-698    C    0.50569010    0.71292973    0.45507002    -0.12060000
opls_145-699    C    0.48646023    0.71189988    0.40977020    -0.17000000
opls_916-700    C    0.44526018    0.74901990    0.38228018    0.19380000
opls_145-701    C    0.42439010    0.78691978    0.40311999    -0.15640000
opls_145-702    C    0.44319003    0.78733022    0.44831006    -0.12070000
opls_145-703    C    0.46535994    0.70729975    0.25538009    -0.08140000
opls_145-704    C    0.43950002    0.70712998    0.27484011    -0.16280000
opls_916-705    C    0.45251992    0.74863993    0.31485999    0.19380000
opls_145-706    C    0.49315005    0.79047015    0.33425002    -0.16530000
opls_145-707    C    0.51938009    0.79004975    0.31525989    -0.11770000
opls_916-708    C    0.37808998    0.75075995    0.30749014    0.18390000
opls_145-709    C    0.35784997    0.79487002    0.26750017    -0.16530000
opls_145-710    C    0.31269986    0.79687002    0.24083000    -0.11770000
opls_700-711    C    0.28394004    0.75457027    0.25198992    0.07160000
opls_145-712    C    0.30497999    0.71137002    0.29294006    -0.14950000
opls_145-713    C    0.35022985    0.70915983    0.31932993    -0.16170000
opls_700-714    C    0.23691992    0.75365983    0.22301002    0.06900000
opls_145-715    C    0.21822003    0.75599005    0.17654992    -0.13130000
opls_700-716    C    0.17320003    0.75445025    0.14736990    0.07120000
opls_145-717    C    0.14598013    0.75109017    0.16591017    -0.16190000
opls_700-718    C    0.16156003    0.74894030    0.21127999    0.07250000
opls_145-719    C    0.20693984    0.74983022    0.23902993    -0.13420000
opls_142-720    C    0.46153009    0.75052985    0.60403002    0.07750000
opls_142-721    C    0.12966007    0.74602985    0.22627006    0.07740000
opls_145-722    C    0.44919013    0.75780970    0.66651003    0.21560000
opls_145-723    C    0.11624997    0.74479975    0.28827000    0.21570000
opls_145-724    C    0.40299996    0.76347015    0.64322018    -0.16530000
opls_145-725    C    0.37888992    0.76372015    0.66468992    -0.16400000
opls_145-726    C    0.39913005    0.75845025    0.71068013    0.21580000
opls_145-727    C    0.44534988    0.75337998    0.73399003    -0.16680000
opls_145-728    C    0.46946997    0.75317973    0.71253014    -0.16330000
opls_145-729    C    0.06995010    0.74409017    0.26494005    -0.16870000
opls_145-730    C    0.04588007    0.74412998    0.28648011    -0.16520000
opls_145-731    C    0.06630996    0.74487002    0.33258007    0.20750000
opls_145-732    C    0.11260998    0.74517973    0.35586993    -0.16530000
opls_145-733    C    0.13664015    0.74514988    0.33434005    -0.16400000
opls_142-734    C    0.38584999    0.75608022    0.77268006    0.07740000
opls_142-735    C    0.05403006    0.74823010    0.39518989    0.07760000
opls_142-736    C    0.64104009    0.49379975    0.10082009    0.07740000
opls_145-737    C    0.57798995    0.49562998    0.02573004    0.21670000
opls_145-738    C    0.60084996    0.49400000    0.00231006    -0.16680000
opls_145-739    C    0.57893024    0.49351990    0.95671023    -0.16510000
opls_145-740    C    0.53281014    0.49462998    0.93131010    0.21740000
opls_145-741    C    0.50989022    0.49632027    0.95470018    -0.16520000
opls_145-742    C    0.53183994    0.49682027    0.00034010    -0.16780000
opls_142-743    C    0.47024998    0.49525000    0.85593023    0.07730000
opls_142-744    C    0.84265994    0.50626990    0.89977008    0.07730000
opls_145-745    C    0.90565012    0.50469030    0.97493997    0.21800000
opls_145-746    C    0.88282011    0.50582027    0.99840005    -0.16870000
opls_145-747    C    0.90478989    0.50589988    0.04401006    -0.16530000
opls_145-748    C    0.95090990    0.50486007    0.06935992    0.21800000
opls_145-749    C    0.97377981    0.50376990    0.04591989    -0.16280000
opls_145-750    C    0.95180017    0.50367973    0.00029015    -0.16860000
opls_142-751    C    0.01359988    0.50337002    0.14463003    0.07800000
opls_145-752    C    0.21580991    0.49376990    0.30824987    0.20760000
opls_145-753    C    0.17411010    0.50310012    0.64276999    0.21330000
opls_142-754    C    0.09927009    0.50364988    0.63073994    0.07680000
opls_700-755    C    0.05218993    0.50300000    0.59942994    0.07250000
opls_142-756    C    0.14143995    0.49552985    0.29722993    0.07630000
opls_700-757    C    0.09419008    0.49779975    0.26670003    0.08210000
opls_145-758    C    0.03389990    0.50360012    0.55395005    -0.13470000
opls_700-759    C    0.98777015    0.50199005    0.52444012    0.07070000
opls_145-760    C    0.96059000    0.50098010    0.54370989    -0.13300000
opls_700-761    C    0.97705996    0.50015983    0.58880006    0.05420000
opls_145-762    C    0.02291001    0.50129975    0.61562993    -0.16200000
opls_145-763    C    0.07480997    0.49944030    0.22081005    -0.16200000
opls_700-764    C    0.02930005    0.50224005    0.19174011    0.07090000
opls_145-765    C    0.00237992    0.50355970    0.21035005    -0.11700000
opls_700-766    C    0.01936013    0.50115983    0.25660018    0.06910000
opls_145-767    C    0.06586992    0.49865983    0.28350990    -0.13740000
opls_700-768    C    0.96898012    0.49984017    0.47728010    0.07150000
opls_700-769    C    0.99137999    0.50032027    0.27577991    0.07160000
opls_145-770    C    0.98969002    0.53757027    0.45564014    -0.12060000
opls_145-771    C    0.97052015    0.53824005    0.41038008    -0.16710000
opls_916-772    C    0.92955022    0.50025000    0.38295019    0.19560000
opls_145-773    C    0.90896007    0.46146020    0.40385014    -0.16400000
opls_145-774    C    0.92778997    0.46103980    0.44905007    -0.12060000
opls_145-775    C    0.95013008    0.54233022    0.25649010    -0.12770000
opls_145-776    C    0.92423011    0.54277985    0.27590018    -0.16650000
opls_916-777    C    0.93696005    0.50069030    0.31571007    0.19380000
opls_145-778    C    0.97743006    0.45826990    0.33503997    -0.16510000
opls_145-779    C    0.00364009    0.45819030    0.31603999    -0.11950000
opls_916-780    C    0.86238993    0.49923010    0.30807012    0.19380000
opls_145-781    C    0.84207016    0.45685012    0.26755012    -0.16330000
opls_145-782    C    0.79691008    0.45566978    0.24075015    -0.11950000
opls_700-783    C    0.76821017    0.49699005    0.25232016    0.07160000
opls_145-784    C    0.78934003    0.53845025    0.29375006    -0.12370000
opls_145-785    C    0.83458011    0.53988993    0.32027006    -0.16780000
opls_700-786    C    0.72113002    0.49820025    0.22347006    0.06780000
opls_145-787    C    0.70217999    0.49530970    0.17700996    -0.15140000
opls_700-788    C    0.34288000    0.74640983    0.85200017    0.07110000
opls_145-789    C    0.63007010    0.50007027    0.16672017    -0.16160000
opls_700-790    C    0.64588996    0.50297015    0.21211003    0.07430000
opls_145-791    C    0.69130005    0.50246020    0.23965986    -0.13990000
opls_750-792    N    0.88456000    0.00434017    0.92833002    -0.27040000
opls_750-793    N    0.97175007    0.00475000    0.11596001    -0.27050000
opls_239-794    N    0.90964988    0.00062998    0.33566004    -0.13450000
opls_750-795    N    0.59911004    0.99635012    0.07234985    -0.27050000
opls_750-796    N    0.51206992    0.99425995    0.88473005    -0.27050000
opls_750-797    N    0.16926003    0.99289988    0.28301009    -0.27050000
opls_750-798    N    0.12762993    0.00140983    0.61722002    -0.26960000
opls_750-799    N    0.35655009    0.99794030    0.38298009    -0.27810000
opls_750-800    N    0.31488013    0.00500000    0.71713022    -0.26760000
opls_239-801    N    0.57466005    0.99874005    0.66502016    -0.13440000
opls_750-802    N    0.52498006    0.00579975    0.35415990    -0.26870000
opls_750-803    N    0.85756003    0.99551990    0.73201021    -0.26960000
opls_750-804    N    0.62708010    0.00786007    0.26906004    -0.26960000
opls_750-805    N    0.95950000    0.99589988    0.64670005    -0.27050000
opls_750-806    N    0.11544000    0.25434017    0.07166998    -0.27050000
opls_750-807    N    0.02824993    0.25475000    0.88403999    -0.27050000
opls_239-808    N    0.09035012    0.25062998    0.66433996    -0.13450000
opls_750-809    N    0.40088996    0.24635012    0.92765015    -0.27050000
opls_750-810    N    0.48793008    0.24425995    0.11526995    -0.27050000
opls_750-811    N    0.83073997    0.24289988    0.71698991    -0.27050000
opls_750-812    N    0.87237007    0.25140983    0.38277998    -0.26960000
opls_750-813    N    0.64344991    0.24794030    0.61701991    -0.27810000
opls_750-814    N    0.68512003    0.25500000    0.28287011    -0.26760000
opls_239-815    N    0.42534011    0.24874005    0.33498017    -0.13450000
opls_750-816    N    0.47501994    0.25579975    0.64584010    -0.26860000
opls_750-817    N    0.14244013    0.24551990    0.26799011    -0.26950000
opls_750-818    N    0.37291990    0.25786007    0.73093996    -0.27810000
opls_750-819    N    0.04050000    0.24589988    0.35329995    -0.27050000
opls_750-820    N    0.88456000    0.50434017    0.92833002    -0.27050000
opls_750-821    N    0.97175007    0.50475000    0.11596001    -0.27050000
opls_239-822    N    0.90964988    0.50062998    0.33566004    -0.13450000
opls_750-823    N    0.59911004    0.49635012    0.07234985    -0.27050000
opls_750-824    N    0.51206992    0.49425995    0.88473005    -0.27030000
opls_750-825    N    0.16926003    0.49289988    0.28301009    -0.27050000
opls_750-826    N    0.12762993    0.50140983    0.61722002    -0.26960000
opls_750-827    N    0.35655009    0.49794030    0.38298009    -0.27810000
opls_750-828    N    0.31488013    0.50500000    0.71713022    -0.26760000
opls_239-829    N    0.57466005    0.49874005    0.66502016    -0.13450000
opls_750-830    N    0.52498006    0.50579975    0.35415990    -0.26870000
opls_750-831    N    0.85756003    0.49551990    0.73201021    -0.26960000
opls_750-832    N    0.62708010    0.50786007    0.26906004    -0.27800000
opls_750-833    N    0.95950000    0.49589988    0.64670005    -0.27050000
opls_750-834    N    0.11544000    0.75434017    0.07166998    -0.27050000
opls_750-835    N    0.02824993    0.75475000    0.88403999    -0.27050000
opls_239-836    N    0.09035012    0.75062998    0.66433996    -0.13450000
opls_750-837    N    0.40088996    0.74635012    0.92765015    -0.27050000
opls_750-838    N    0.48793008    0.74425995    0.11526995    -0.27020000
opls_750-839    N    0.83073997    0.74289988    0.71698991    -0.27050000
opls_750-840    N    0.87237007    0.75140983    0.38277998    -0.26960000
opls_750-841    N    0.64344991    0.74794030    0.61701991    -0.27810000
opls_750-842    N    0.68512003    0.75500000    0.28287011    -0.26750000
opls_239-843    N    0.42534011    0.74874005    0.33498017    -0.13450000
opls_750-844    N    0.47501994    0.75579975    0.64584010    -0.26770000
opls_750-845    N    0.14244013    0.74551990    0.26799011    -0.26960000
opls_750-846    N    0.37291990    0.75786007    0.73093996    -0.26960000
opls_750-847    N    0.04050000    0.74589988    0.35329995    -0.27050000
