#======================================================================
# Crystal Data Generated By AuToFF
#----------------------------------------------------------------------

data_AuToFF_phase_1

_cell_length_a                         18.1590
_cell_length_b                         18.1590
_cell_length_c                         3.4970
_cell_angle_alpha                      90.00
_cell_angle_beta                       90.00
_cell_angle_gamma                      120.00
_symmetry_space_group_name_H-M_alt     'P 1'
_symmetry_space_group_IT_number        1

loop_
_space_group_symop_operation_xyz
   'x, y, z'

loop_
   _atom_site_label
   _atom_site_type_symbol
   _atom_site_fract_x
   _atom_site_fract_y
   _atom_site_fract_z
   _atom_site_charge
MOF2_H_b-0    H    0.13430975    0.66017960    0.49265084    0.17260000
MOF2_H_b-1    H    0.33981997    0.47412973    0.49265084    0.17260000
MOF2_H_b-2    H    0.52586996    0.86569003    0.49265084    0.17260000
MOF2_H_b-3    H    0.13430975    0.66017960    0.50734916    0.17260000
MOF2_H_b-4    H    0.33981997    0.47412973    0.50734916    0.17260000
MOF2_H_b-5    H    0.52586996    0.86569003    0.50734916    0.17260000
opls_526-6    H    0.87438974    0.34533987    0.50000000    0.22140000
opls_146-7    H    0.01946964    0.43285964    0.50000000    0.22140000
opls_146-8    H    0.98781957    0.63873953    0.50000000    0.22140000
opls_526-9    H    0.84080017    0.54868003    0.50000000    0.22140000
opls_526-10    H    0.65465976    0.52904969    0.50000000    0.22140000
opls_146-11    H    0.56713993    0.58660983    0.50000000    0.22140000
opls_146-12    H    0.36126015    0.34908013    0.50000000    0.22140000
opls_526-13    H    0.45132002    0.29211963    0.50000000    0.22140000
opls_526-14    H    0.47095018    0.12560981    0.50000000    0.22140000
opls_146-15    H    0.41339012    0.98052989    0.50000000    0.22140000
opls_146-16    H    0.65091996    0.01217971    0.50000000    0.22140000
opls_526-17    H    0.70788004    0.15919970    0.50000000    0.22140000
opls_261-18    C    0.15464000    0.56363982    0.50000000    0.22810000
opls_700-19    C    0.84309000    0.43862011    0.50000000    0.06290000
opls_523-20    C    0.89765025    0.40528012    0.50000000    -0.21990000
opls_145-21    C    0.98333028    0.45691001    0.50000000    -0.22580000
opls_145-22    C    0.01823981    0.54297998    0.50000000    0.17760000
opls_145-23    C    0.96426014    0.57861996    0.50000000    -0.21660000
opls_523-24    C    0.87741995    0.52527000    0.50000000    -0.21990000
opls_261-25    C    0.43636016    0.59099996    0.50000000    0.22810000
opls_700-26    C    0.56137978    0.40447000    0.50000000    0.06290000
opls_523-27    C    0.59472018    0.49237004    0.50000000    -0.21990000
opls_145-28    C    0.54308979    0.52641967    0.50000000    -0.22580000
opls_145-29    C    0.45701968    0.47525969    0.50000000    0.17760000
opls_145-30    C    0.42137974    0.38563960    0.50000000    -0.21660000
opls_523-31    C    0.47473030    0.35215018    0.50000000    -0.21990000
opls_261-32    C    0.40899952    0.84535958    0.50000000    0.22810000
opls_700-33    C    0.59552967    0.15690989    0.50000000    0.06290000
opls_523-34    C    0.50763012    0.10234984    0.50000000    -0.21990000
opls_145-35    C    0.47357994    0.01667031    0.50000000    -0.22580000
opls_145-36    C    0.52473964    0.98175969    0.50000000    0.17760000
opls_145-37    C    0.61435980    0.03573981    0.50000000    -0.21650000
opls_523-38    C    0.64784975    0.12257983    0.50000000    -0.21990000
opls_700-39    C    0.36740970    0.75400988    0.50000000    -0.10120000
opls_280-40    C    0.28035993    0.70134985    0.50000000    0.22060000
opls_531-41    C    0.61655010    0.36657010    0.50000000    0.33040000
opls_700-42    C    0.24598995    0.61339958    0.50000000    -0.10120000
opls_280-43    C    0.29864965    0.57900975    0.50000000    0.22060000
opls_531-44    C    0.63342972    0.24997965    0.50000000    0.33030000
opls_700-45    C    0.38660003    0.63258990    0.50000000    -0.10120000
opls_280-46    C    0.42099010    0.71963976    0.50000000    0.22060000
opls_531-47    C    0.75001987    0.38344962    0.50000000    0.33040000
opls_309-48    N    0.10737973    0.59748979    0.50000000    -0.42910000
opls_309-49    N    0.40250979    0.50988989    0.50000000    -0.42910000
opls_309-50    N    0.49010961    0.89261969    0.50000000    -0.42910000
opls_520-51    N    0.70015021    0.41959003    0.50000000    -0.42990000
opls_520-52    N    0.58040992    0.28055991    0.50000000    -0.42990000
opls_520-53    N    0.71943987    0.29985006    0.50000000    -0.42990000
opls_281-54    O    0.23669011    0.72988002    0.50000000    -0.40800000
opls_281-55    O    0.27011996    0.50680967    0.50000000    -0.40800000
opls_281-56    O    0.49318961    0.76330967    0.50000000    -0.40800000
