#======================================================================
# Crystal Data Generated By AuToFF
#----------------------------------------------------------------------

data_AuToFF_phase_1

_cell_length_a                         40.8324
_cell_length_b                         40.8324
_cell_length_c                         40.8324
_cell_angle_alpha                      90.00
_cell_angle_beta                       90.00
_cell_angle_gamma                      90.00
_symmetry_space_group_name_H-M_alt     'P 1'
_symmetry_space_group_IT_number        1

loop_
_space_group_symop_operation_xyz
   'x, y, z'

loop_
   _atom_site_label
   _atom_site_type_symbol
   _atom_site_fract_x
   _atom_site_fract_y
   _atom_site_fract_z
   _atom_site_charge
opls_750-0    N    0.26164002    0.33294002    0.94054991    -0.30280000
opls_750-1    N    0.23835998    0.66705998    0.44054991    -0.30280000
opls_750-2    N    0.73835998    0.83294002    0.55945009    -0.30280000
opls_750-3    N    0.76164002    0.16705998    0.05945009    -0.30270000
opls_750-4    N    0.94054991    0.26164002    0.33294002    -0.30280000
opls_750-5    N    0.44054991    0.23835998    0.66705998    -0.30280000
opls_750-6    N    0.55945009    0.73835998    0.83294002    -0.30280000
opls_750-7    N    0.05945009    0.76164002    0.16705998    -0.30280000
opls_750-8    N    0.83294002    0.55945009    0.73835998    -0.30280000
opls_750-9    N    0.16705998    0.05945009    0.76164002    -0.30280000
opls_750-10    N    0.33294002    0.94054991    0.26164002    -0.30280000
opls_750-11    N    0.66705998    0.44054991    0.23835998    -0.30280000
opls_750-12    N    0.58294002    0.51164002    0.19054991    -0.30280000
opls_750-13    N    0.91705998    0.48835998    0.69054991    -0.30270000
opls_750-14    N    0.08294002    0.98835998    0.80945009    -0.30260000
opls_750-15    N    0.41705998    0.01164002    0.30945009    -0.30280000
opls_750-16    N    0.51164002    0.19054991    0.58294002    -0.30280000
opls_750-17    N    0.48835998    0.69054991    0.91705998    -0.30280000
opls_750-18    N    0.98835998    0.80945009    0.08294002    -0.30280000
opls_750-19    N    0.01164002    0.30945009    0.41705998    -0.30280000
opls_750-20    N    0.80945009    0.08294002    0.98835998    -0.30280000
opls_750-21    N    0.30945009    0.41705998    0.01164002    -0.30280000
opls_750-22    N    0.19054991    0.58294002    0.51164002    -0.30280000
opls_750-23    N    0.69054991    0.91705998    0.48835998    -0.30280000
opls_750-24    N    0.73835998    0.16705998    0.94054991    -0.30280000
opls_750-25    N    0.76164002    0.83294002    0.44054991    -0.30280000
opls_750-26    N    0.26164002    0.66705998    0.55945009    -0.30280000
opls_750-27    N    0.23835998    0.33294002    0.05945009    -0.30280000
opls_750-28    N    0.05945009    0.23835998    0.33294002    -0.30270000
opls_750-29    N    0.55945009    0.26164002    0.66705998    -0.30280000
opls_750-30    N    0.44054991    0.76164002    0.83294002    -0.30280000
opls_750-31    N    0.94054991    0.73835998    0.16705998    -0.30280000
opls_750-32    N    0.16705998    0.94054991    0.73835998    -0.30280000
opls_750-33    N    0.83294002    0.44054991    0.76164002    -0.30280000
opls_750-34    N    0.66705998    0.55945009    0.26164002    -0.30280000
opls_750-35    N    0.33294002    0.05945009    0.23835998    -0.30280000
opls_750-36    N    0.91705998    0.51164002    0.80945009    -0.30280000
opls_750-37    N    0.58294002    0.48835998    0.30945009    -0.30280000
opls_750-38    N    0.41705998    0.98835998    0.19054991    -0.30280000
opls_750-39    N    0.08294002    0.01164002    0.69054991    -0.30280000
opls_750-40    N    0.98835998    0.19054991    0.41705998    -0.30280000
opls_750-41    N    0.01164002    0.69054991    0.08294002    -0.30280000
opls_750-42    N    0.51164002    0.80945009    0.91705998    -0.30280000
opls_750-43    N    0.48835998    0.30945009    0.58294002    -0.30270000
opls_750-44    N    0.69054991    0.08294002    0.01164002    -0.30280000
opls_750-45    N    0.19054991    0.41705998    0.98835998    -0.30280000
opls_750-46    N    0.30945009    0.58294002    0.48835998    -0.30270000
opls_750-47    N    0.80945009    0.91705998    0.51164002    -0.30280000
opls_142-48    C    0.24168993    0.31132997    0.92873992    0.08470000
opls_139-49    C    0.25547996    0.35301011    0.96952004    0.26870000
opls_136-50    C    0.62518000    0.47531005    0.21424996    -0.32080000
opls_700-51    C    0.25037005    0.70777006    0.60050009    0.05960000
opls_145-52    C    0.26618004    0.74511001    0.65609002    -0.36470000
opls_145-53    C    0.22967007    0.73289006    0.61093005    -0.27550000
opls_727-54    C    0.23744012    0.75154999    0.63840994    0.32680000
opls_145-55    C    0.27901005    0.70134011    0.61816009    -0.13190000
opls_145-56    C    0.28677006    0.71977988    0.64573011    -0.05460000
opls_136-57    C    0.25000000    0.66870010    0.50000000    -0.31690000
opls_142-58    C    0.25831007    0.68867003    0.42873992    0.08470000
opls_139-59    C    0.24452004    0.64698989    0.46952004    0.26870000
opls_136-60    C    0.87482000    0.52468995    0.71424996    -0.32080000
opls_700-61    C    0.24962995    0.29222994    0.10050009    0.05960000
opls_145-62    C    0.23381996    0.25488999    0.15609002    -0.36480000
opls_145-63    C    0.27032993    0.26710994    0.11093005    -0.27550000
opls_727-64    C    0.26255988    0.24845001    0.13840994    0.32680000
opls_145-65    C    0.22098995    0.29865989    0.11816009    -0.13190000
opls_145-66    C    0.21322994    0.28022012    0.14573011    -0.05460000
opls_136-67    C    0.25000000    0.33129990    0.00000000    -0.31690000
opls_142-68    C    0.75831007    0.81132997    0.57126008    0.08470000
opls_139-69    C    0.74452004    0.85301011    0.53047996    0.26880000
opls_136-70    C    0.37482000    0.97531005    0.28575004    -0.32080000
opls_700-71    C    0.74962995    0.20777006    0.89949991    0.05960000
opls_145-72    C    0.73381996    0.24511001    0.84390998    -0.36480000
opls_145-73    C    0.77032993    0.23289006    0.88906995    -0.27550000
opls_727-74    C    0.76255988    0.25154999    0.86159006    0.32680000
opls_145-75    C    0.72098995    0.20134011    0.88183991    -0.13180000
opls_145-76    C    0.71322994    0.21977988    0.85426989    -0.05460000
opls_136-77    C    0.75000000    0.16870010    0.00000000    -0.31680000
opls_142-78    C    0.74168993    0.18867003    0.07126008    0.08470000
opls_139-79    C    0.75547996    0.14698989    0.03047996    0.26880000
opls_136-80    C    0.12518000    0.02468995    0.78575004    -0.32080000
opls_700-81    C    0.75037005    0.79222994    0.39949991    0.05960000
opls_145-82    C    0.76618004    0.75488999    0.34390998    -0.36480000
opls_145-83    C    0.72967007    0.76710994    0.38906995    -0.27540000
opls_727-84    C    0.73744012    0.74845001    0.36159006    0.32680000
opls_145-85    C    0.77901005    0.79865989    0.38183991    -0.13190000
opls_145-86    C    0.78677006    0.78022012    0.35426989    -0.05460000
opls_136-87    C    0.75000000    0.83129990    0.50000000    -0.31690000
opls_142-88    C    0.92873992    0.24168993    0.31132997    0.08470000
opls_139-89    C    0.96952004    0.25547996    0.35301011    0.26870000
opls_136-90    C    0.21424996    0.62518000    0.47531005    -0.32080000
opls_700-91    C    0.60050009    0.25037005    0.70777006    0.05960000
opls_145-92    C    0.65609002    0.26618004    0.74511001    -0.36470000
opls_145-93    C    0.61093005    0.22967007    0.73289006    -0.27550000
opls_727-94    C    0.63840994    0.23744012    0.75154999    0.32680000
opls_145-95    C    0.61816009    0.27901005    0.70134011    -0.13190000
opls_145-96    C    0.64573011    0.28677006    0.71977988    -0.05460000
opls_136-97    C    0.50000000    0.25000000    0.66870010    -0.31690000
opls_142-98    C    0.42873992    0.25831007    0.68867003    0.08470000
opls_139-99    C    0.46952004    0.24452004    0.64698989    0.26870000
opls_136-100    C    0.71424996    0.87482000    0.52468995    -0.32060000
opls_700-101    C    0.10050009    0.24962995    0.29222994    0.05960000
opls_145-102    C    0.15609002    0.23381996    0.25488999    -0.36470000
opls_145-103    C    0.11093005    0.27032993    0.26710994    -0.27550000
opls_727-104    C    0.13840994    0.26255988    0.24845001    0.32680000
opls_145-105    C    0.11816009    0.22098995    0.29865989    -0.13190000
opls_145-106    C    0.14573011    0.21322994    0.28022012    -0.05460000
opls_136-107    C    0.00000000    0.25000000    0.33129990    -0.31690000
opls_142-108    C    0.57126008    0.75831007    0.81132997    0.08470000
opls_139-109    C    0.53047996    0.74452004    0.85301011    0.26870000
opls_136-110    C    0.28575004    0.37482000    0.97531005    -0.32070000
opls_700-111    C    0.89949991    0.74962995    0.20777006    0.05960000
opls_145-112    C    0.84390998    0.73381996    0.24511001    -0.36480000
opls_145-113    C    0.88906995    0.77032993    0.23289006    -0.27540000
opls_727-114    C    0.86159006    0.76255988    0.25154999    0.32680000
opls_145-115    C    0.88183991    0.72098995    0.20134011    -0.13190000
opls_145-116    C    0.85426989    0.71322994    0.21977988    -0.05460000
opls_136-117    C    0.00000000    0.75000000    0.16870010    -0.31690000
opls_142-118    C    0.07126008    0.74168993    0.18867003    0.08470000
opls_139-119    C    0.03047996    0.75547996    0.14698989    0.26870000
opls_136-120    C    0.78575004    0.12518000    0.02468995    -0.32070000
opls_700-121    C    0.39949991    0.75037005    0.79222994    0.05960000
opls_145-122    C    0.34390998    0.76618004    0.75488999    -0.36480000
opls_145-123    C    0.38906995    0.72967007    0.76710994    -0.27550000
opls_727-124    C    0.36159006    0.73744012    0.74845001    0.32690000
opls_145-125    C    0.38183991    0.77901005    0.79865989    -0.13190000
opls_145-126    C    0.35426989    0.78677006    0.78022012    -0.05460000
opls_136-127    C    0.50000000    0.75000000    0.83129990    -0.31690000
opls_142-128    C    0.81132997    0.57126008    0.75831007    0.08470000
opls_139-129    C    0.85301011    0.53047996    0.74452004    0.26870000
opls_136-130    C    0.97531005    0.28575004    0.37482000    -0.32080000
opls_700-131    C    0.20777006    0.89949991    0.74962995    0.05960000
opls_145-132    C    0.24511001    0.84390998    0.73381996    -0.36480000
opls_145-133    C    0.23289006    0.88906995    0.77032993    -0.27550000
opls_727-134    C    0.25154999    0.86159006    0.76255988    0.32680000
opls_145-135    C    0.20134011    0.88183991    0.72098995    -0.13190000
opls_145-136    C    0.21977988    0.85426989    0.71322994    -0.05460000
opls_136-137    C    0.16870010    0.00000000    0.75000000    -0.31690000
opls_142-138    C    0.18867003    0.07126008    0.74168993    0.08470000
opls_139-139    C    0.14698989    0.03047996    0.75547996    0.26870000
opls_136-140    C    0.02468995    0.78575004    0.12518000    -0.32070000
opls_700-141    C    0.79222994    0.39949991    0.75037005    0.05960000
opls_145-142    C    0.75488999    0.34390998    0.76618004    -0.36480000
opls_145-143    C    0.76710994    0.38906995    0.72967007    -0.27540000
opls_727-144    C    0.74845001    0.36159006    0.73744012    0.32680000
opls_145-145    C    0.79865989    0.38183991    0.77901005    -0.13190000
opls_145-146    C    0.78022012    0.35426989    0.78677006    -0.05460000
opls_136-147    C    0.83129990    0.50000000    0.75000000    -0.31690000
opls_142-148    C    0.31132997    0.92873992    0.24168993    0.08470000
opls_139-149    C    0.35301011    0.96952004    0.25547996    0.26870000
opls_136-150    C    0.47531005    0.21424996    0.62518000    -0.32080000
opls_700-151    C    0.70777006    0.60050009    0.25037005    0.05960000
opls_145-152    C    0.74511001    0.65609002    0.26618004    -0.36480000
opls_145-153    C    0.73289006    0.61093005    0.22967007    -0.27550000
opls_727-154    C    0.75154999    0.63840994    0.23744012    0.32680000
opls_145-155    C    0.70134011    0.61816009    0.27901005    -0.13190000
opls_145-156    C    0.71977988    0.64573011    0.28677006    -0.05460000
opls_136-157    C    0.66870010    0.50000000    0.25000000    -0.31690000
opls_142-158    C    0.68867003    0.42873992    0.25831007    0.08470000
opls_139-159    C    0.64698989    0.46952004    0.24452004    0.26870000
opls_136-160    C    0.52468995    0.71424996    0.87482000    -0.32080000
opls_700-161    C    0.29222994    0.10050009    0.24962995    0.05960000
opls_145-162    C    0.25488999    0.15609002    0.23381996    -0.36480000
opls_145-163    C    0.26710994    0.11093005    0.27032993    -0.27550000
opls_727-164    C    0.24845001    0.13840994    0.26255988    0.32690000
opls_145-165    C    0.29865989    0.11816009    0.22098995    -0.13190000
opls_145-166    C    0.28022012    0.14573011    0.21322994    -0.05460000
opls_136-167    C    0.33129990    0.00000000    0.25000000    -0.31690000
opls_142-168    C    0.56132997    0.49168993    0.17873992    0.08470000
opls_139-169    C    0.60301011    0.50547996    0.21952004    0.26870000
opls_136-170    C    0.72531005    0.87518000    0.46424996    -0.32080000
opls_700-171    C    0.95777006    0.50037005    0.85050009    0.05960000
opls_145-172    C    0.99511001    0.51618004    0.90609002    -0.36480000
opls_145-173    C    0.98289006    0.47967007    0.86093005    -0.27550000
opls_727-174    C    0.00154999    0.48744012    0.88840994    0.32680000
opls_145-175    C    0.95134011    0.52901005    0.86816009    -0.13190000
opls_145-176    C    0.96977988    0.53677006    0.89573011    -0.05460000
opls_136-177    C    0.91870010    0.50000000    0.75000000    -0.31690000
opls_142-178    C    0.93867003    0.50831007    0.67873992    0.08480000
opls_139-179    C    0.89698989    0.49452004    0.71952004    0.26870000
opls_136-180    C    0.77468995    0.12482000    0.96424996    -0.32080000
opls_700-181    C    0.54222994    0.49962995    0.35050009    0.05960000
opls_145-182    C    0.50488999    0.48381996    0.40609002    -0.36480000
opls_145-183    C    0.51710994    0.52032993    0.36093005    -0.27550000
opls_727-184    C    0.49845001    0.51255988    0.38840994    0.32680000
opls_145-185    C    0.54865989    0.47098995    0.36816009    -0.13190000
opls_145-186    C    0.53022012    0.46322994    0.39573011    -0.05460000
opls_136-187    C    0.58129990    0.50000000    0.25000000    -0.31690000
opls_142-188    C    0.06132997    0.00831007    0.82126008    0.08470000
opls_139-189    C    0.10301011    0.99452004    0.78047996    0.26870000
opls_136-190    C    0.22531005    0.62482000    0.53575004    -0.32070000
opls_700-191    C    0.45777006    0.99962995    0.14949991    0.05960000
opls_145-192    C    0.49511001    0.98381996    0.09390998    -0.36470000
opls_145-193    C    0.48289006    0.02032993    0.13906995    -0.27550000
opls_727-194    C    0.50154999    0.01255988    0.11159006    0.32680000
opls_145-195    C    0.45134011    0.97098995    0.13183991    -0.13190000
opls_145-196    C    0.46977988    0.96322994    0.10426989    -0.05460000
opls_136-197    C    0.41870010    0.00000000    0.25000000    -0.31690000
opls_142-198    C    0.43867003    0.99168993    0.32126008    0.08470000
opls_139-199    C    0.39698989    0.00547996    0.28047996    0.26870000
opls_136-200    C    0.27468995    0.37518000    0.03575004    -0.32080000
opls_700-201    C    0.04222994    0.00037005    0.64949991    0.05960000
opls_145-202    C    0.00488999    0.01618004    0.59390998    -0.36480000
opls_145-203    C    0.01710994    0.97967007    0.63906995    -0.27550000
opls_727-204    C    0.99845001    0.98744012    0.61159006    0.32690000
opls_145-205    C    0.04865989    0.02901005    0.63183991    -0.13190000
opls_145-206    C    0.03022012    0.03677006    0.60426989    -0.05460000
opls_136-207    C    0.08129990    0.00000000    0.75000000    -0.31690000
opls_142-208    C    0.49168993    0.17873992    0.56132997    0.08470000
opls_139-209    C    0.50547996    0.21952004    0.60301011    0.26870000
opls_136-210    C    0.87518000    0.46424996    0.72531005    -0.32080000
opls_700-211    C    0.50037005    0.85050009    0.95777006    0.05960000
opls_145-212    C    0.51618004    0.90609002    0.99511001    -0.36480000
opls_145-213    C    0.47967007    0.86093005    0.98289006    -0.27550000
opls_727-214    C    0.48744012    0.88840994    0.00154999    0.32680000
opls_145-215    C    0.52901005    0.86816009    0.95134011    -0.13190000
opls_145-216    C    0.53677006    0.89573011    0.96977988    -0.05460000
opls_136-217    C    0.50000000    0.75000000    0.91870010    -0.31690000
opls_142-218    C    0.50831007    0.67873992    0.93867003    0.08470000
opls_139-219    C    0.49452004    0.71952004    0.89698989    0.26870000
opls_136-220    C    0.12482000    0.96424996    0.77468995    -0.32080000
opls_700-221    C    0.49962995    0.35050009    0.54222994    0.05960000
opls_145-222    C    0.48381996    0.40609002    0.50488999    -0.36480000
opls_145-223    C    0.52032993    0.36093005    0.51710994    -0.27550000
opls_727-224    C    0.51255988    0.38840994    0.49845001    0.32680000
opls_145-225    C    0.47098995    0.36816009    0.54865989    -0.13180000
opls_145-226    C    0.46322994    0.39573011    0.53022012    -0.05460000
opls_136-227    C    0.50000000    0.25000000    0.58129990    -0.31690000
opls_142-228    C    0.00831007    0.82126008    0.06132997    0.08470000
opls_139-229    C    0.99452004    0.78047996    0.10301011    0.26870000
opls_136-230    C    0.62482000    0.53575004    0.22531005    -0.32070000
opls_700-231    C    0.99962995    0.14949991    0.45777006    0.05960000
opls_145-232    C    0.98381996    0.09390998    0.49511001    -0.36480000
opls_145-233    C    0.02032993    0.13906995    0.48289006    -0.27550000
opls_727-234    C    0.01255988    0.11159006    0.50154999    0.32690000
opls_145-235    C    0.97098995    0.13183991    0.45134011    -0.13190000
opls_145-236    C    0.96322994    0.10426989    0.46977988    -0.05460000
opls_136-237    C    0.00000000    0.25000000    0.41870010    -0.31690000
opls_142-238    C    0.99168993    0.32126008    0.43867003    0.08470000
opls_139-239    C    0.00547996    0.28047996    0.39698989    0.26870000
opls_136-240    C    0.37518000    0.03575004    0.27468995    -0.32080000
opls_700-241    C    0.00037005    0.64949991    0.04222994    0.05960000
opls_145-242    C    0.01618004    0.59390998    0.00488999    -0.36480000
opls_145-243    C    0.97967007    0.63906995    0.01710994    -0.27550000
opls_727-244    C    0.98744012    0.61159006    0.99845001    0.32680000
opls_145-245    C    0.02901005    0.63183991    0.04865989    -0.13180000
opls_145-246    C    0.03677006    0.60426989    0.03022012    -0.05460000
opls_136-247    C    0.00000000    0.75000000    0.08129990    -0.31680000
opls_142-248    C    0.82126008    0.06132997    0.00831007    0.08470000
opls_139-249    C    0.78047996    0.10301011    0.99452004    0.26870000
opls_136-250    C    0.53575004    0.22531005    0.62482000    -0.32080000
opls_700-251    C    0.14949991    0.45777006    0.99962995    0.05960000
opls_145-252    C    0.09390998    0.49511001    0.98381996    -0.36470000
opls_145-253    C    0.13906995    0.48289006    0.02032993    -0.27550000
opls_727-254    C    0.11159006    0.50154999    0.01255988    0.32680000
opls_145-255    C    0.13183991    0.45134011    0.97098995    -0.13190000
opls_145-256    C    0.10426989    0.46977988    0.96322994    -0.05460000
opls_136-257    C    0.25000000    0.41870010    0.00000000    -0.31690000
opls_142-258    C    0.32126008    0.43867003    0.99168993    0.08470000
opls_139-259    C    0.28047996    0.39698989    0.00547996    0.26870000
opls_136-260    C    0.03575004    0.27468995    0.37518000    -0.32080000
opls_700-261    C    0.64949991    0.04222994    0.00037005    0.05960000
opls_145-262    C    0.59390998    0.00488999    0.01618004    -0.36480000
opls_145-263    C    0.63906995    0.01710994    0.97967007    -0.27550000
opls_727-264    C    0.61159006    0.99845001    0.98744012    0.32690000
opls_145-265    C    0.63183991    0.04865989    0.02901005    -0.13190000
opls_145-266    C    0.60426989    0.03022012    0.03677006    -0.05460000
opls_136-267    C    0.75000000    0.08129990    0.00000000    -0.31690000
opls_142-268    C    0.17873992    0.56132997    0.49168993    0.08470000
opls_139-269    C    0.21952004    0.60301011    0.50547996    0.26870000
opls_136-270    C    0.46424996    0.72531005    0.87518000    -0.32070000
opls_700-271    C    0.85050009    0.95777006    0.50037005    0.05960000
opls_145-272    C    0.90609002    0.99511001    0.51618004    -0.36480000
opls_145-273    C    0.86093005    0.98289006    0.47967007    -0.27550000
opls_727-274    C    0.88840994    0.00154999    0.48744012    0.32680000
opls_145-275    C    0.86816009    0.95134011    0.52901005    -0.13190000
opls_145-276    C    0.89573011    0.96977988    0.53677006    -0.05460000
opls_136-277    C    0.75000000    0.91870010    0.50000000    -0.31680000
opls_142-278    C    0.67873992    0.93867003    0.50831007    0.08470000
opls_139-279    C    0.71952004    0.89698989    0.49452004    0.26880000
opls_136-280    C    0.96424996    0.77468995    0.12482000    -0.32080000
opls_700-281    C    0.35050009    0.54222994    0.49962995    0.05960000
opls_145-282    C    0.40609002    0.50488999    0.48381996    -0.36480000
opls_145-283    C    0.36093005    0.51710994    0.52032993    -0.27550000
opls_727-284    C    0.38840994    0.49845001    0.51255988    0.32680000
opls_145-285    C    0.36816009    0.54865989    0.47098995    -0.13190000
opls_145-286    C    0.39573011    0.53022012    0.46322994    -0.05460000
opls_136-287    C    0.25000000    0.58129990    0.50000000    -0.31690000
opls_142-288    C    0.75831007    0.18867003    0.92873992    0.08470000
opls_139-289    C    0.74452004    0.14698989    0.96952004    0.26870000
opls_136-290    C    0.37482000    0.02468995    0.21424996    -0.32080000
opls_700-291    C    0.74962995    0.79222994    0.60050009    0.05960000
opls_145-292    C    0.73381996    0.75488999    0.65609002    -0.36480000
opls_145-293    C    0.77032993    0.76710994    0.61093005    -0.27550000
opls_727-294    C    0.76255988    0.74845001    0.63840994    0.32680000
opls_145-295    C    0.72098995    0.79865989    0.61816009    -0.13190000
opls_145-296    C    0.71322994    0.78022012    0.64573011    -0.05460000
opls_142-297    C    0.74168993    0.81132997    0.42873992    0.08480000
opls_139-298    C    0.75547996    0.85301011    0.46952004    0.26870000
opls_136-299    C    0.12518000    0.97531005    0.71424996    -0.32070000
opls_700-300    C    0.75037005    0.20777006    0.10050009    0.05960000
opls_145-301    C    0.76618004    0.24511001    0.15609002    -0.36470000
opls_145-302    C    0.72967007    0.23289006    0.11093005    -0.27550000
opls_727-303    C    0.73744012    0.25154999    0.13840994    0.32680000
opls_145-304    C    0.77901005    0.20134011    0.11816009    -0.13190000
opls_145-305    C    0.78677006    0.21977988    0.14573011    -0.05460000
opls_142-306    C    0.24168993    0.68867003    0.57126008    0.08470000
opls_139-307    C    0.25547996    0.64698989    0.53047996    0.26870000
opls_136-308    C    0.62518000    0.52468995    0.28575004    -0.32080000
opls_700-309    C    0.25037005    0.29222994    0.89949991    0.05960000
opls_145-310    C    0.26618004    0.25488999    0.84390998    -0.36480000
opls_145-311    C    0.22967007    0.26710994    0.88906995    -0.27550000
opls_727-312    C    0.23744012    0.24845001    0.86159006    0.32680000
opls_145-313    C    0.27901005    0.29865989    0.88183991    -0.13190000
opls_145-314    C    0.28677006    0.28022012    0.85426989    -0.05460000
opls_142-315    C    0.25831007    0.31132997    0.07126008    0.08470000
opls_139-316    C    0.24452004    0.35301011    0.03047996    0.26870000
opls_136-317    C    0.87482000    0.47531005    0.78575004    -0.32080000
opls_700-318    C    0.24962995    0.70777006    0.39949991    0.05960000
opls_145-319    C    0.23381996    0.74511001    0.34390998    -0.36480000
opls_145-320    C    0.27032993    0.73289006    0.38906995    -0.27550000
opls_727-321    C    0.26255988    0.75154999    0.36159006    0.32680000
opls_145-322    C    0.22098995    0.70134011    0.38183991    -0.13190000
opls_145-323    C    0.21322994    0.71977988    0.35426989    -0.05460000
opls_142-324    C    0.07126008    0.25831007    0.31132997    0.08470000
opls_139-325    C    0.03047996    0.24452004    0.35301011    0.26870000
opls_136-326    C    0.78575004    0.87482000    0.47531005    -0.32080000
opls_700-327    C    0.39949991    0.24962995    0.70777006    0.05960000
opls_145-328    C    0.34390998    0.23381996    0.74511001    -0.36480000
opls_145-329    C    0.38906995    0.27032993    0.73289006    -0.27550000
opls_727-330    C    0.36159006    0.26255988    0.75154999    0.32680000
opls_145-331    C    0.38183991    0.22098995    0.70134011    -0.13190000
opls_145-332    C    0.35426989    0.21322994    0.71977988    -0.05460000
opls_142-333    C    0.57126008    0.24168993    0.68867003    0.08470000
opls_139-334    C    0.53047996    0.25547996    0.64698989    0.26870000
opls_136-335    C    0.28575004    0.62518000    0.52468995    -0.32080000
opls_700-336    C    0.89949991    0.25037005    0.29222994    0.05960000
opls_145-337    C    0.84390998    0.26618004    0.25488999    -0.36480000
opls_145-338    C    0.88906995    0.22967007    0.26710994    -0.27550000
opls_727-339    C    0.86159006    0.23744012    0.24845001    0.32680000
opls_145-340    C    0.88183991    0.27901005    0.29865989    -0.13190000
opls_145-341    C    0.85426989    0.28677006    0.28022012    -0.05460000
opls_142-342    C    0.42873992    0.74168993    0.81132997    0.08470000
opls_139-343    C    0.46952004    0.75547996    0.85301011    0.26880000
opls_136-344    C    0.71424996    0.12518000    0.97531005    -0.32080000
opls_700-345    C    0.10050009    0.75037005    0.20777006    0.05960000
opls_145-346    C    0.15609002    0.76618004    0.24511001    -0.36480000
opls_145-347    C    0.11093005    0.72967007    0.23289006    -0.27540000
opls_727-348    C    0.13840994    0.73744012    0.25154999    0.32680000
opls_145-349    C    0.11816009    0.77901005    0.20134011    -0.13190000
opls_145-350    C    0.14573011    0.78677006    0.21977988    -0.05460000
opls_142-351    C    0.92873992    0.75831007    0.18867003    0.08470000
opls_139-352    C    0.96952004    0.74452004    0.14698989    0.26870000
opls_136-353    C    0.21424996    0.37482000    0.02468995    -0.32070000
opls_700-354    C    0.60050009    0.74962995    0.79222994    0.05960000
opls_145-355    C    0.65609002    0.73381996    0.75488999    -0.36480000
opls_145-356    C    0.61093005    0.77032993    0.76710994    -0.27550000
opls_727-357    C    0.63840994    0.76255988    0.74845001    0.32680000
opls_145-358    C    0.61816009    0.72098995    0.79865989    -0.13190000
opls_145-359    C    0.64573011    0.71322994    0.78022012    -0.05460000
opls_142-360    C    0.18867003    0.92873992    0.75831007    0.08470000
opls_139-361    C    0.14698989    0.96952004    0.74452004    0.26870000
opls_136-362    C    0.02468995    0.21424996    0.37482000    -0.32080000
opls_700-363    C    0.79222994    0.60050009    0.74962995    0.05960000
opls_145-364    C    0.75488999    0.65609002    0.73381996    -0.36480000
opls_145-365    C    0.76710994    0.61093005    0.77032993    -0.27550000
opls_727-366    C    0.74845001    0.63840994    0.76255988    0.32680000
opls_145-367    C    0.79865989    0.61816009    0.72098995    -0.13180000
opls_145-368    C    0.78022012    0.64573011    0.71322994    -0.05460000
opls_142-369    C    0.81132997    0.42873992    0.74168993    0.08470000
opls_139-370    C    0.85301011    0.46952004    0.75547996    0.26870000
opls_136-371    C    0.97531005    0.71424996    0.12518000    -0.32080000
opls_700-372    C    0.20777006    0.10050009    0.75037005    0.05960000
opls_145-373    C    0.24511001    0.15609002    0.76618004    -0.36480000
opls_145-374    C    0.23289006    0.11093005    0.72967007    -0.27550000
opls_727-375    C    0.25154999    0.13840994    0.73744012    0.32680000
opls_145-376    C    0.20134011    0.11816009    0.77901005    -0.13190000
opls_145-377    C    0.21977988    0.14573011    0.78677006    -0.05460000
opls_142-378    C    0.68867003    0.57126008    0.24168993    0.08470000
opls_139-379    C    0.64698989    0.53047996    0.25547996    0.26870000
opls_136-380    C    0.52468995    0.28575004    0.62518000    -0.32080000
opls_700-381    C    0.29222994    0.89949991    0.25037005    0.05960000
opls_145-382    C    0.25488999    0.84390998    0.26618004    -0.36470000
opls_145-383    C    0.26710994    0.88906995    0.22967007    -0.27550000
opls_727-384    C    0.24845001    0.86159006    0.23744012    0.32680000
opls_145-385    C    0.29865989    0.88183991    0.27901005    -0.13190000
opls_145-386    C    0.28022012    0.85426989    0.28677006    -0.05460000
opls_142-387    C    0.31132997    0.07126008    0.25831007    0.08470000
opls_139-388    C    0.35301011    0.03047996    0.24452004    0.26870000
opls_136-389    C    0.47531005    0.78575004    0.87482000    -0.32080000
opls_700-390    C    0.70777006    0.39949991    0.24962995    0.05960000
opls_145-391    C    0.74511001    0.34390998    0.23381996    -0.36480000
opls_145-392    C    0.73289006    0.38906995    0.27032993    -0.27550000
opls_727-393    C    0.75154999    0.36159006    0.26255988    0.32680000
opls_145-394    C    0.70134011    0.38183991    0.22098995    -0.13190000
opls_145-395    C    0.71977988    0.35426989    0.21322994    -0.05460000
opls_142-396    C    0.93867003    0.49168993    0.82126008    0.08470000
opls_139-397    C    0.89698989    0.50547996    0.78047996    0.26870000
opls_136-398    C    0.77468995    0.87518000    0.53575004    -0.32080000
opls_700-399    C    0.54222994    0.50037005    0.14949991    0.05960000
opls_145-400    C    0.50488999    0.51618004    0.09390998    -0.36470000
opls_145-401    C    0.51710994    0.47967007    0.13906995    -0.27540000
opls_727-402    C    0.49845001    0.48744012    0.11159006    0.32680000
opls_145-403    C    0.54865989    0.52901005    0.13183991    -0.13190000
opls_145-404    C    0.53022012    0.53677006    0.10426989    -0.05460000
opls_142-405    C    0.56132997    0.50831007    0.32126008    0.08470000
opls_139-406    C    0.60301011    0.49452004    0.28047996    0.26870000
opls_136-407    C    0.72531005    0.12482000    0.03575004    -0.32080000
opls_700-408    C    0.95777006    0.49962995    0.64949991    0.05960000
opls_145-409    C    0.99511001    0.48381996    0.59390998    -0.36480000
opls_145-410    C    0.98289006    0.52032993    0.63906995    -0.27540000
opls_727-411    C    0.00154999    0.51255988    0.61159006    0.32680000
opls_145-412    C    0.95134011    0.47098995    0.63183991    -0.13190000
opls_145-413    C    0.96977988    0.46322994    0.60426989    -0.05460000
opls_142-414    C    0.43867003    0.00831007    0.17873992    0.08470000
opls_139-415    C    0.39698989    0.99452004    0.21952004    0.26870000
opls_136-416    C    0.27468995    0.62482000    0.46424996    -0.32080000
opls_700-417    C    0.04222994    0.99962995    0.85050009    0.05960000
opls_145-418    C    0.00488999    0.98381996    0.90609002    -0.36480000
opls_145-419    C    0.01710994    0.02032993    0.86093005    -0.27550000
opls_727-420    C    0.99845001    0.01255988    0.88840994    0.32680000
opls_145-421    C    0.04865989    0.97098995    0.86816009    -0.13190000
opls_145-422    C    0.03022012    0.96322994    0.89573011    -0.05460000
opls_142-423    C    0.06132997    0.99168993    0.67873992    0.08470000
opls_139-424    C    0.10301011    0.00547996    0.71952004    0.26870000
opls_136-425    C    0.22531005    0.37518000    0.96424996    -0.32060000
opls_700-426    C    0.45777006    0.00037005    0.35050009    0.05970000
opls_145-427    C    0.49511001    0.01618004    0.40609002    -0.36480000
opls_145-428    C    0.48289006    0.97967007    0.36093005    -0.27550000
opls_727-429    C    0.50154999    0.98744012    0.38840994    0.32680000
opls_145-430    C    0.45134011    0.02901005    0.36816009    -0.13190000
opls_145-431    C    0.46977988    0.03677006    0.39573011    -0.05460000
opls_142-432    C    0.00831007    0.17873992    0.43867003    0.08470000
opls_139-433    C    0.99452004    0.21952004    0.39698989    0.26870000
opls_136-434    C    0.62482000    0.46424996    0.27468995    -0.32080000
opls_700-435    C    0.99962995    0.85050009    0.04222994    0.05970000
opls_145-436    C    0.98381996    0.90609002    0.00488999    -0.36480000
opls_145-437    C    0.02032993    0.86093005    0.01710994    -0.27550000
opls_727-438    C    0.01255988    0.88840994    0.99845001    0.32680000
opls_145-439    C    0.97098995    0.86816009    0.04865989    -0.13190000
opls_145-440    C    0.96322994    0.89573011    0.03022012    -0.05460000
opls_142-441    C    0.99168993    0.67873992    0.06132997    0.08470000
opls_139-442    C    0.00547996    0.71952004    0.10301011    0.26870000
opls_136-443    C    0.37518000    0.96424996    0.22531005    -0.32080000
opls_700-444    C    0.00037005    0.35050009    0.45777006    0.05960000
opls_145-445    C    0.01618004    0.40609002    0.49511001    -0.36470000
opls_145-446    C    0.97967007    0.36093005    0.48289006    -0.27550000
opls_727-447    C    0.98744012    0.38840994    0.50154999    0.32680000
opls_145-448    C    0.02901005    0.36816009    0.45134011    -0.13190000
opls_145-449    C    0.03677006    0.39573011    0.46977988    -0.05460000
opls_142-450    C    0.49168993    0.82126008    0.93867003    0.08470000
opls_139-451    C    0.50547996    0.78047996    0.89698989    0.26880000
opls_136-452    C    0.87518000    0.53575004    0.77468995    -0.32080000
opls_700-453    C    0.50037005    0.14949991    0.54222994    0.05960000
opls_145-454    C    0.51618004    0.09390998    0.50488999    -0.36480000
opls_145-455    C    0.47967007    0.13906995    0.51710994    -0.27540000
opls_727-456    C    0.48744012    0.11159006    0.49845001    0.32690000
opls_145-457    C    0.52901005    0.13183991    0.54865989    -0.13190000
opls_145-458    C    0.53677006    0.10426989    0.53022012    -0.05460000
opls_142-459    C    0.50831007    0.32126008    0.56132997    0.08470000
opls_139-460    C    0.49452004    0.28047996    0.60301011    0.26870000
opls_136-461    C    0.12482000    0.03575004    0.72531005    -0.32080000
opls_700-462    C    0.49962995    0.64949991    0.95777006    0.05960000
opls_145-463    C    0.48381996    0.59390998    0.99511001    -0.36480000
opls_145-464    C    0.52032993    0.63906995    0.98289006    -0.27550000
opls_727-465    C    0.51255988    0.61159006    0.00154999    0.32680000
opls_145-466    C    0.47098995    0.63183991    0.95134011    -0.13190000
opls_145-467    C    0.46322994    0.60426989    0.96977988    -0.05460000
opls_142-468    C    0.67873992    0.06132997    0.99168993    0.08470000
opls_139-469    C    0.71952004    0.10301011    0.00547996    0.26870000
opls_136-470    C    0.96424996    0.22531005    0.37518000    -0.32080000
opls_700-471    C    0.35050009    0.45777006    0.00037005    0.05960000
opls_145-472    C    0.40609002    0.49511001    0.01618004    -0.36480000
opls_145-473    C    0.36093005    0.48289006    0.97967007    -0.27550000
opls_727-474    C    0.38840994    0.50154999    0.98744012    0.32680000
opls_145-475    C    0.36816009    0.45134011    0.02901005    -0.13190000
opls_145-476    C    0.39573011    0.46977988    0.03677006    -0.05460000
opls_142-477    C    0.17873992    0.43867003    0.00831007    0.08470000
opls_139-478    C    0.21952004    0.39698989    0.99452004    0.26870000
opls_136-479    C    0.46424996    0.27468995    0.62482000    -0.32080000
opls_700-480    C    0.85050009    0.04222994    0.99962995    0.05960000
opls_145-481    C    0.90609002    0.00488999    0.98381996    -0.36480000
opls_145-482    C    0.86093005    0.01710994    0.02032993    -0.27550000
opls_727-483    C    0.88840994    0.99845001    0.01255988    0.32680000
opls_145-484    C    0.86816009    0.04865989    0.97098995    -0.13190000
opls_145-485    C    0.89573011    0.03022012    0.96322994    -0.05460000
opls_142-486    C    0.32126008    0.56132997    0.50831007    0.08470000
opls_139-487    C    0.28047996    0.60301011    0.49452004    0.26870000
opls_136-488    C    0.03575004    0.72531005    0.12482000    -0.32080000
opls_700-489    C    0.64949991    0.95777006    0.49962995    0.05960000
opls_145-490    C    0.59390998    0.99511001    0.48381996    -0.36480000
opls_145-491    C    0.63906995    0.98289006    0.52032993    -0.27550000
opls_727-492    C    0.61159006    0.00154999    0.51255988    0.32680000
opls_145-493    C    0.63183991    0.95134011    0.47098995    -0.13190000
opls_145-494    C    0.60426989    0.96977988    0.46322994    -0.05460000
opls_142-495    C    0.82126008    0.93867003    0.49168993    0.08470000
opls_139-496    C    0.78047996    0.89698989    0.50547996    0.26870000
opls_136-497    C    0.53575004    0.77468995    0.87518000    -0.32080000
opls_700-498    C    0.14949991    0.54222994    0.50037005    0.05960000
opls_145-499    C    0.09390998    0.50488999    0.51618004    -0.36480000
opls_145-500    C    0.13906995    0.51710994    0.47967007    -0.27550000
opls_727-501    C    0.11159006    0.49845001    0.48744012    0.32680000
opls_145-502    C    0.13183991    0.54865989    0.52901005    -0.13190000
opls_145-503    C    0.10426989    0.53022012    0.53677006    -0.05460000
MOF2_B_2-504    B    0.27568010    0.23426005    0.81299997    0.73840000
MOF2_B_2-505    B    0.22431990    0.76573995    0.31299997    0.73840000
MOF2_B_2-506    B    0.72431990    0.73426005    0.68700003    0.73850000
MOF2_B_2-507    B    0.77568010    0.26573995    0.18700003    0.73850000
MOF2_B_2-508    B    0.81299997    0.27568010    0.23426005    0.73850000
MOF2_B_2-509    B    0.31299997    0.22431990    0.76573995    0.73840000
MOF2_B_2-510    B    0.68700003    0.72431990    0.73426005    0.73840000
MOF2_B_2-511    B    0.18700003    0.77568010    0.26573995    0.73840000
MOF2_B_2-512    B    0.73426005    0.68700003    0.72431990    0.73840000
MOF2_B_2-513    B    0.26573995    0.18700003    0.77568010    0.73850000
MOF2_B_2-514    B    0.23426005    0.81299997    0.27568010    0.73850000
MOF2_B_2-515    B    0.76573995    0.31299997    0.22431990    0.73840000
MOF2_B_2-516    B    0.48426005    0.52568010    0.06299997    0.73840000
MOF2_B_2-517    B    0.01573995    0.47431990    0.56299997    0.73840000
MOF2_B_2-518    B    0.98426005    0.97431990    0.93700003    0.73840000
MOF2_B_2-519    B    0.51573995    0.02568010    0.43700003    0.73840000
MOF2_B_2-520    B    0.52568010    0.06299997    0.48426005    0.73870000
MOF2_B_2-521    B    0.47431990    0.56299997    0.01573995    0.73860000
MOF2_B_2-522    B    0.97431990    0.93700003    0.98426005    0.73860000
MOF2_B_2-523    B    0.02568010    0.43700003    0.51573995    0.73840000
MOF2_B_2-524    B    0.93700003    0.98426005    0.97431990    0.73850000
MOF2_B_2-525    B    0.43700003    0.51573995    0.02568010    0.73840000
MOF2_B_2-526    B    0.06299997    0.48426005    0.52568010    0.73850000
MOF2_B_2-527    B    0.56299997    0.01573995    0.47431990    0.73850000
MOF2_B_2-528    B    0.72431990    0.26573995    0.81299997    0.73840000
MOF2_B_2-529    B    0.77568010    0.73426005    0.31299997    0.73840000
MOF2_B_2-530    B    0.27568010    0.76573995    0.68700003    0.73850000
MOF2_B_2-531    B    0.22431990    0.23426005    0.18700003    0.73850000
MOF2_B_2-532    B    0.18700003    0.22431990    0.23426005    0.73840000
MOF2_B_2-533    B    0.68700003    0.27568010    0.76573995    0.73850000
MOF2_B_2-534    B    0.31299997    0.77568010    0.73426005    0.73840000
MOF2_B_2-535    B    0.81299997    0.72431990    0.26573995    0.73860000
MOF2_B_2-536    B    0.26573995    0.81299997    0.72431990    0.73840000
MOF2_B_2-537    B    0.73426005    0.31299997    0.77568010    0.73840000
MOF2_B_2-538    B    0.76573995    0.68700003    0.27568010    0.73840000
MOF2_B_2-539    B    0.23426005    0.18700003    0.22431990    0.73840000
MOF2_B_2-540    B    0.01573995    0.52568010    0.93700003    0.73840000
MOF2_B_2-541    B    0.48426005    0.47431990    0.43700003    0.73850000
MOF2_B_2-542    B    0.51573995    0.97431990    0.06299997    0.73840000
MOF2_B_2-543    B    0.98426005    0.02568010    0.56299997    0.73850000
MOF2_B_2-544    B    0.97431990    0.06299997    0.51573995    0.73840000
MOF2_B_2-545    B    0.02568010    0.56299997    0.98426005    0.73850000
MOF2_B_2-546    B    0.52568010    0.93700003    0.01573995    0.73850000
MOF2_B_2-547    B    0.47431990    0.43700003    0.48426005    0.73840000
MOF2_B_2-548    B    0.56299997    0.98426005    0.02568010    0.73840000
MOF2_B_2-549    B    0.06299997    0.51573995    0.97431990    0.73850000
MOF2_B_2-550    B    0.43700003    0.48426005    0.47431990    0.73850000
MOF2_B_2-551    B    0.93700003    0.01573995    0.52568010    0.73850000
opls_180-552    O    0.29416003    0.80436002    0.74407995    -0.58220000
opls_180-553    O    0.20583997    0.19563998    0.24407995    -0.58210000
opls_180-554    O    0.70583997    0.30436002    0.75592005    -0.58220000
opls_180-555    O    0.79416003    0.69563998    0.25592005    -0.58210000
opls_180-556    O    0.74407995    0.29416003    0.80436002    -0.58220000
opls_180-557    O    0.24407995    0.20583997    0.19563998    -0.58220000
opls_180-558    O    0.75592005    0.70583997    0.30436002    -0.58220000
opls_180-559    O    0.25592005    0.79416003    0.69563998    -0.58200000
opls_180-560    O    0.30436002    0.75592005    0.70583997    -0.58220000
opls_180-561    O    0.69563998    0.25592005    0.79416003    -0.58200000
opls_180-562    O    0.80436002    0.74407995    0.29416003    -0.58220000
opls_180-563    O    0.19563998    0.24407995    0.20583997    -0.58220000
opls_180-564    O    0.05436002    0.54416003    0.99407995    -0.58220000
opls_180-565    O    0.44563998    0.45583997    0.49407995    -0.58220000
opls_180-566    O    0.55436002    0.95583997    0.00592005    -0.58220000
opls_180-567    O    0.94563998    0.04416003    0.50592005    -0.58210000
opls_180-568    O    0.54416003    0.99407995    0.05436002    -0.58210000
opls_180-569    O    0.45583997    0.49407995    0.44563998    -0.58220000
opls_180-570    O    0.95583997    0.00592005    0.55436002    -0.58220000
opls_180-571    O    0.04416003    0.50592005    0.94563998    -0.58220000
opls_180-572    O    0.00592005    0.55436002    0.95583997    -0.58220000
opls_180-573    O    0.50592005    0.94563998    0.04416003    -0.58220000
opls_180-574    O    0.99407995    0.05436002    0.54416003    -0.58220000
opls_180-575    O    0.49407995    0.44563998    0.45583997    -0.58210000
opls_180-576    O    0.70583997    0.69563998    0.74407995    -0.58210000
opls_180-577    O    0.79416003    0.30436002    0.24407995    -0.58220000
opls_180-578    O    0.29416003    0.19563998    0.75592005    -0.58220000
opls_180-579    O    0.20583997    0.80436002    0.25592005    -0.58220000
opls_180-580    O    0.25592005    0.20583997    0.80436002    -0.58220000
opls_180-581    O    0.75592005    0.29416003    0.19563998    -0.58220000
opls_180-582    O    0.24407995    0.79416003    0.30436002    -0.58220000
opls_180-583    O    0.74407995    0.70583997    0.69563998    -0.58220000
opls_180-584    O    0.69563998    0.74407995    0.70583997    -0.58220000
opls_180-585    O    0.30436002    0.24407995    0.79416003    -0.58220000
opls_180-586    O    0.19563998    0.75592005    0.29416003    -0.58220000
opls_180-587    O    0.80436002    0.25592005    0.20583997    -0.58220000
opls_180-588    O    0.44563998    0.54416003    0.00592005    -0.58220000
opls_180-589    O    0.05436002    0.45583997    0.50592005    -0.58210000
opls_180-590    O    0.94563998    0.95583997    0.99407995    -0.58220000
opls_180-591    O    0.55436002    0.04416003    0.49407995    -0.58210000
opls_180-592    O    0.95583997    0.99407995    0.94563998    -0.58210000
opls_180-593    O    0.04416003    0.49407995    0.55436002    -0.58220000
opls_180-594    O    0.54416003    0.00592005    0.44563998    -0.58220000
opls_180-595    O    0.45583997    0.50592005    0.05436002    -0.58220000
opls_180-596    O    0.49407995    0.55436002    0.04416003    -0.58210000
opls_180-597    O    0.99407995    0.94563998    0.95583997    -0.58220000
opls_180-598    O    0.50592005    0.05436002    0.45583997    -0.58220000
opls_180-599    O    0.00592005    0.44563998    0.54416003    -0.58210000
opls_140-600    H    0.64066011    0.47901005    0.19227011    0.13140000
opls_140-601    H    0.61005990    0.45325012    0.20975990    0.11500000
opls_140-602    H    0.93476994    0.52155004    0.74651992    0.10880000
opls_144-603    H    0.21846989    0.30683012    0.94049995    0.10110000
opls_146-604    H    0.20744997    0.73820006    0.59766999    0.12640000
opls_146-605    H    0.29542006    0.68204000    0.61072996    0.11220000
opls_146-606    H    0.30904992    0.71421004    0.65879008    0.11800000
opls_140-607    H    0.85933989    0.52098995    0.69227011    0.13140000
opls_140-608    H    0.88994010    0.54674988    0.70975990    0.11500000
opls_140-609    H    0.56523006    0.47844996    0.24651992    0.10880000
opls_144-610    H    0.28153011    0.69316988    0.44049995    0.10110000
opls_146-611    H    0.29255003    0.26179994    0.09766999    0.12640000
opls_146-612    H    0.20457994    0.31796000    0.11072996    0.11220000
opls_146-613    H    0.19095008    0.28578996    0.15879008    0.11800000
opls_140-614    H    0.35933989    0.97901005    0.30772989    0.13140000
opls_140-615    H    0.38994010    0.95325012    0.29024010    0.11500000
opls_140-616    H    0.06523006    0.02155004    0.75348008    0.10880000
opls_144-617    H    0.78153011    0.80683012    0.55950005    0.10110000
opls_146-618    H    0.79255003    0.23820006    0.90233001    0.12640000
opls_146-619    H    0.70457994    0.18204000    0.88927004    0.11220000
opls_146-620    H    0.69095008    0.21421004    0.84120992    0.11800000
opls_140-621    H    0.14066011    0.02098995    0.80772989    0.13140000
opls_140-622    H    0.11005990    0.04674988    0.79024010    0.11500000
opls_140-623    H    0.43476994    0.97844996    0.25348008    0.10880000
opls_144-624    H    0.71846989    0.19316988    0.05950005    0.10120000
opls_146-625    H    0.70744997    0.76179994    0.40233001    0.12640000
opls_146-626    H    0.79542006    0.81796000    0.38927004    0.11220000
opls_146-627    H    0.80904992    0.78578996    0.34120992    0.11800000
opls_140-628    H    0.19227011    0.64066011    0.47901005    0.13140000
opls_140-629    H    0.20975990    0.61005990    0.45325012    0.11500000
opls_140-630    H    0.74651992    0.93476994    0.52155004    0.10880000
opls_144-631    H    0.94049995    0.21846989    0.30683012    0.10110000
opls_146-632    H    0.59766999    0.20744997    0.73820006    0.12640000
opls_146-633    H    0.61072996    0.29542006    0.68204000    0.11220000
opls_146-634    H    0.65879008    0.30904992    0.71421004    0.11800000
opls_140-635    H    0.69227011    0.85933989    0.52098995    0.13140000
opls_140-636    H    0.70975990    0.88994010    0.54674988    0.11500000
opls_140-637    H    0.24651992    0.56523006    0.47844996    0.10880000
opls_144-638    H    0.44049995    0.28153011    0.69316988    0.10120000
opls_146-639    H    0.09766999    0.29255003    0.26179994    0.12640000
opls_146-640    H    0.11072996    0.20457994    0.31796000    0.11220000
opls_146-641    H    0.15879008    0.19095008    0.28578996    0.11800000
opls_140-642    H    0.30772989    0.35933989    0.97901005    0.13140000
opls_140-643    H    0.29024010    0.38994010    0.95325012    0.11500000
opls_140-644    H    0.75348008    0.06523006    0.02155004    0.10880000
opls_144-645    H    0.55950005    0.78153011    0.80683012    0.10110000
opls_146-646    H    0.90233001    0.79255003    0.23820006    0.12640000
opls_146-647    H    0.88927004    0.70457994    0.18204000    0.11220000
opls_146-648    H    0.84120992    0.69095008    0.21421004    0.11800000
opls_140-649    H    0.80772989    0.14066011    0.02098995    0.13140000
opls_140-650    H    0.79024010    0.11005990    0.04674988    0.11500000
opls_140-651    H    0.25348008    0.43476994    0.97844996    0.10880000
opls_144-652    H    0.05950005    0.71846989    0.19316988    0.10110000
opls_146-653    H    0.40233001    0.70744997    0.76179994    0.12650000
opls_146-654    H    0.38927004    0.79542006    0.81796000    0.11220000
opls_146-655    H    0.34120992    0.80904992    0.78578996    0.11800000
opls_140-656    H    0.97901005    0.30772989    0.35933989    0.13140000
opls_140-657    H    0.95325012    0.29024010    0.38994010    0.11500000
opls_140-658    H    0.02155004    0.75348008    0.06523006    0.10880000
opls_144-659    H    0.80683012    0.55950005    0.78153011    0.10110000
opls_146-660    H    0.23820006    0.90233001    0.79255003    0.12650000
opls_146-661    H    0.18204000    0.88927004    0.70457994    0.11220000
opls_146-662    H    0.21421004    0.84120992    0.69095008    0.11800000
opls_140-663    H    0.02098995    0.80772989    0.14066011    0.13140000
opls_140-664    H    0.04674988    0.79024010    0.11005990    0.11500000
opls_140-665    H    0.97844996    0.25348008    0.43476994    0.10880000
opls_144-666    H    0.19316988    0.05950005    0.71846989    0.10110000
opls_146-667    H    0.76179994    0.40233001    0.70744997    0.12640000
opls_146-668    H    0.81796000    0.38927004    0.79542006    0.11220000
opls_146-669    H    0.78578996    0.34120992    0.80904992    0.11800000
opls_140-670    H    0.47901005    0.19227011    0.64066011    0.13150000
opls_140-671    H    0.45325012    0.20975990    0.61005990    0.11500000
opls_140-672    H    0.52155004    0.74651992    0.93476994    0.10880000
opls_144-673    H    0.30683012    0.94049995    0.21846989    0.10110000
opls_146-674    H    0.73820006    0.59766999    0.20744997    0.12640000
opls_146-675    H    0.68204000    0.61072996    0.29542006    0.11220000
opls_146-676    H    0.71421004    0.65879008    0.30904992    0.11800000
opls_140-677    H    0.52098995    0.69227011    0.85933989    0.13140000
opls_140-678    H    0.54674988    0.70975990    0.88994010    0.11500000
opls_140-679    H    0.47844996    0.24651992    0.56523006    0.10880000
opls_144-680    H    0.69316988    0.44049995    0.28153011    0.10110000
opls_146-681    H    0.26179994    0.09766999    0.29255003    0.12640000
opls_146-682    H    0.31796000    0.11072996    0.20457994    0.11220000
opls_146-683    H    0.28578996    0.15879008    0.19095008    0.11800000
opls_140-684    H    0.72901005    0.89066011    0.44227011    0.13140000
opls_140-685    H    0.70325012    0.86005990    0.45975990    0.11500000
opls_140-686    H    0.77155004    0.18476994    0.99651992    0.10890000
opls_144-687    H    0.55683012    0.46846989    0.19049995    0.10110000
opls_146-688    H    0.98820006    0.45744997    0.84766999    0.12640000
opls_146-689    H    0.93204000    0.54542006    0.86072996    0.11220000
opls_146-690    H    0.96421004    0.55904992    0.90879008    0.11800000
opls_140-691    H    0.77098995    0.10933989    0.94227011    0.13140000
opls_140-692    H    0.79674988    0.13994010    0.95975990    0.11500000
opls_140-693    H    0.72844996    0.81523006    0.49651992    0.10880000
opls_144-694    H    0.94316988    0.53153011    0.69049995    0.10110000
opls_146-695    H    0.51179994    0.54255003    0.34766999    0.12640000
opls_146-696    H    0.56796000    0.45457994    0.36072996    0.11220000
opls_146-697    H    0.53578996    0.44095008    0.40879008    0.11800000
opls_140-698    H    0.22901005    0.60933989    0.55772989    0.13140000
opls_140-699    H    0.20325012    0.63994010    0.54024010    0.11500000
opls_140-700    H    0.27155004    0.31523006    0.00348008    0.10880000
opls_144-701    H    0.05683012    0.03153011    0.80950005    0.10110000
opls_146-702    H    0.48820006    0.04255003    0.15233001    0.12640000
opls_146-703    H    0.43204000    0.95457994    0.13927004    0.11220000
opls_146-704    H    0.46421004    0.94095008    0.09120992    0.11800000
opls_140-705    H    0.27098995    0.39066011    0.05772989    0.13140000
opls_140-706    H    0.29674988    0.36005990    0.04024010    0.11500000
opls_140-707    H    0.22844996    0.68476994    0.50348008    0.10880000
opls_144-708    H    0.44316988    0.96846989    0.30950005    0.10110000
opls_146-709    H    0.01179994    0.95744997    0.65233001    0.12640000
opls_146-710    H    0.06796000    0.04542006    0.63927004    0.11220000
opls_146-711    H    0.03578996    0.05904992    0.59120992    0.11800000
opls_140-712    H    0.89066011    0.44227011    0.72901005    0.13140000
opls_140-713    H    0.86005990    0.45975990    0.70325012    0.11500000
opls_140-714    H    0.18476994    0.99651992    0.77155004    0.10880000
opls_144-715    H    0.46846989    0.19049995    0.55683012    0.10110000
opls_146-716    H    0.45744997    0.84766999    0.98820006    0.12640000
opls_146-717    H    0.54542006    0.86072996    0.93204000    0.11220000
opls_146-718    H    0.55904992    0.90879008    0.96421004    0.11800000
opls_140-719    H    0.10933989    0.94227011    0.77098995    0.13140000
opls_140-720    H    0.13994010    0.95975990    0.79674988    0.11500000
opls_140-721    H    0.81523006    0.49651992    0.72844996    0.10880000
opls_144-722    H    0.53153011    0.69049995    0.94316988    0.10110000
opls_146-723    H    0.54255003    0.34766999    0.51179994    0.12640000
opls_146-724    H    0.45457994    0.36072996    0.56796000    0.11220000
opls_146-725    H    0.44095008    0.40879008    0.53578996    0.11800000
opls_140-726    H    0.60933989    0.55772989    0.22901005    0.13140000
opls_140-727    H    0.63994010    0.54024010    0.20325012    0.11500000
opls_140-728    H    0.31523006    0.00348008    0.27155004    0.10880000
opls_144-729    H    0.03153011    0.80950005    0.05683012    0.10110000
opls_146-730    H    0.04255003    0.15233001    0.48820006    0.12640000
opls_146-731    H    0.95457994    0.13927004    0.43204000    0.11230000
opls_146-732    H    0.94095008    0.09120992    0.46421004    0.11800000
opls_140-733    H    0.39066011    0.05772989    0.27098995    0.13140000
opls_140-734    H    0.36005990    0.04024010    0.29674988    0.11500000
opls_140-735    H    0.68476994    0.50348008    0.22844996    0.10880000
opls_144-736    H    0.96846989    0.30950005    0.44316988    0.10110000
opls_146-737    H    0.95744997    0.65233001    0.01179994    0.12640000
opls_146-738    H    0.04542006    0.63927004    0.06796000    0.11220000
opls_146-739    H    0.05904992    0.59120992    0.03578996    0.11800000
opls_140-740    H    0.55772989    0.22901005    0.60933989    0.13140000
opls_140-741    H    0.54024010    0.20325012    0.63994010    0.11500000
opls_140-742    H    0.00348008    0.27155004    0.31523006    0.10880000
opls_144-743    H    0.80950005    0.05683012    0.03153011    0.10110000
opls_146-744    H    0.15233001    0.48820006    0.04255003    0.12640000
opls_146-745    H    0.13927004    0.43204000    0.95457994    0.11220000
opls_146-746    H    0.09120992    0.46421004    0.94095008    0.11800000
opls_140-747    H    0.05772989    0.27098995    0.39066011    0.13140000
opls_140-748    H    0.04024010    0.29674988    0.36005990    0.11500000
opls_140-749    H    0.50348008    0.22844996    0.68476994    0.10880000
opls_144-750    H    0.30950005    0.44316988    0.96846989    0.10110000
opls_146-751    H    0.65233001    0.01179994    0.95744997    0.12640000
opls_146-752    H    0.63927004    0.06796000    0.04542006    0.11230000
opls_146-753    H    0.59120992    0.03578996    0.05904992    0.11810000
opls_140-754    H    0.44227011    0.72901005    0.89066011    0.13140000
opls_140-755    H    0.45975990    0.70325012    0.86005990    0.11500000
opls_140-756    H    0.99651992    0.77155004    0.18476994    0.10880000
opls_144-757    H    0.19049995    0.55683012    0.46846989    0.10110000
opls_146-758    H    0.84766999    0.98820006    0.45744997    0.12640000
opls_146-759    H    0.86072996    0.93204000    0.54542006    0.11220000
opls_146-760    H    0.90879008    0.96421004    0.55904992    0.11800000
opls_140-761    H    0.94227011    0.77098995    0.10933989    0.13140000
opls_140-762    H    0.95975990    0.79674988    0.13994010    0.11500000
opls_140-763    H    0.49651992    0.72844996    0.81523006    0.10880000
opls_144-764    H    0.69049995    0.94316988    0.53153011    0.10110000
opls_146-765    H    0.34766999    0.51179994    0.54255003    0.12640000
opls_146-766    H    0.36072996    0.56796000    0.45457994    0.11220000
opls_146-767    H    0.40879008    0.53578996    0.44095008    0.11800000
opls_140-768    H    0.35933989    0.02098995    0.19227011    0.13140000
opls_140-769    H    0.38994010    0.04674988    0.20975990    0.11500000
opls_140-770    H    0.06523006    0.97844996    0.74651992    0.10880000
opls_144-771    H    0.78153011    0.19316988    0.94049995    0.10110000
opls_146-772    H    0.79255003    0.76179994    0.59766999    0.12650000
opls_146-773    H    0.70457994    0.81796000    0.61072996    0.11220000
opls_146-774    H    0.69095008    0.78578996    0.65879008    0.11800000
opls_140-775    H    0.14066011    0.97901005    0.69227011    0.13140000
opls_140-776    H    0.11005990    0.95325012    0.70975990    0.11500000
opls_140-777    H    0.43476994    0.02155004    0.24651992    0.10880000
opls_144-778    H    0.71846989    0.80683012    0.44049995    0.10110000
opls_146-779    H    0.70744997    0.23820006    0.09766999    0.12640000
opls_146-780    H    0.79542006    0.18204000    0.11072996    0.11220000
opls_146-781    H    0.80904992    0.21421004    0.15879008    0.11800000
opls_140-782    H    0.64066011    0.52098995    0.30772989    0.13140000
opls_140-783    H    0.61005990    0.54674988    0.29024010    0.11500000
opls_140-784    H    0.93476994    0.47844996    0.75348008    0.10880000
opls_144-785    H    0.21846989    0.69316988    0.55950005    0.10110000
opls_146-786    H    0.20744997    0.26179994    0.90233001    0.12640000
opls_146-787    H    0.29542006    0.31796000    0.88927004    0.11220000
opls_146-788    H    0.30904992    0.28578996    0.84120992    0.11800000
opls_140-789    H    0.85933989    0.47901005    0.80772989    0.13140000
opls_140-790    H    0.88994010    0.45325012    0.79024010    0.11500000
opls_140-791    H    0.56523006    0.52155004    0.25348008    0.10880000
opls_144-792    H    0.28153011    0.30683012    0.05950005    0.10110000
opls_146-793    H    0.29255003    0.73820006    0.40233001    0.12640000
opls_146-794    H    0.20457994    0.68204000    0.38927004    0.11220000
opls_146-795    H    0.19095008    0.71421004    0.34120992    0.11800000
opls_140-796    H    0.80772989    0.85933989    0.47901005    0.13140000
opls_140-797    H    0.79024010    0.88994010    0.45325012    0.11500000
opls_140-798    H    0.25348008    0.56523006    0.52155004    0.10880000
opls_144-799    H    0.05950005    0.28153011    0.30683012    0.10110000
opls_146-800    H    0.40233001    0.29255003    0.73820006    0.12640000
opls_146-801    H    0.38927004    0.20457994    0.68204000    0.11220000
opls_146-802    H    0.34120992    0.19095008    0.71421004    0.11800000
opls_140-803    H    0.30772989    0.64066011    0.52098995    0.13140000
opls_140-804    H    0.29024010    0.61005990    0.54674988    0.11500000
opls_140-805    H    0.75348008    0.93476994    0.47844996    0.10880000
opls_144-806    H    0.55950005    0.21846989    0.69316988    0.10110000
opls_146-807    H    0.90233001    0.20744997    0.26179994    0.12640000
opls_146-808    H    0.88927004    0.29542006    0.31796000    0.11220000
opls_146-809    H    0.84120992    0.30904992    0.28578996    0.11800000
opls_140-810    H    0.69227011    0.14066011    0.97901005    0.13140000
opls_140-811    H    0.70975990    0.11005990    0.95325012    0.11500000
opls_140-812    H    0.24651992    0.43476994    0.02155004    0.10880000
opls_144-813    H    0.44049995    0.71846989    0.80683012    0.10110000
opls_146-814    H    0.09766999    0.70744997    0.23820006    0.12640000
opls_146-815    H    0.11072996    0.79542006    0.18204000    0.11220000
opls_146-816    H    0.15879008    0.80904992    0.21421004    0.11800000
opls_140-817    H    0.19227011    0.35933989    0.02098995    0.13140000
opls_140-818    H    0.20975990    0.38994010    0.04674988    0.11500000
opls_140-819    H    0.74651992    0.06523006    0.97844996    0.10880000
opls_144-820    H    0.94049995    0.78153011    0.19316988    0.10110000
opls_146-821    H    0.59766999    0.79255003    0.76179994    0.12640000
opls_146-822    H    0.61072996    0.70457994    0.81796000    0.11220000
opls_146-823    H    0.65879008    0.69095008    0.78578996    0.11800000
opls_140-824    H    0.02098995    0.19227011    0.35933989    0.13140000
opls_140-825    H    0.04674988    0.20975990    0.38994010    0.11500000
opls_140-826    H    0.97844996    0.74651992    0.06523006    0.10880000
opls_144-827    H    0.19316988    0.94049995    0.78153011    0.10110000
opls_146-828    H    0.76179994    0.59766999    0.79255003    0.12640000
opls_146-829    H    0.81796000    0.61072996    0.70457994    0.11220000
opls_146-830    H    0.78578996    0.65879008    0.69095008    0.11800000
opls_140-831    H    0.97901005    0.69227011    0.14066011    0.13140000
opls_140-832    H    0.95325012    0.70975990    0.11005990    0.11500000
opls_140-833    H    0.02155004    0.24651992    0.43476994    0.10880000
opls_144-834    H    0.80683012    0.44049995    0.71846989    0.10110000
opls_146-835    H    0.23820006    0.09766999    0.70744997    0.12640000
opls_146-836    H    0.18204000    0.11072996    0.79542006    0.11230000
opls_146-837    H    0.21421004    0.15879008    0.80904992    0.11800000
opls_140-838    H    0.52098995    0.30772989    0.64066011    0.13140000
opls_140-839    H    0.54674988    0.29024010    0.61005990    0.11500000
opls_140-840    H    0.47844996    0.75348008    0.93476994    0.10880000
opls_144-841    H    0.69316988    0.55950005    0.21846989    0.10110000
opls_146-842    H    0.26179994    0.90233001    0.20744997    0.12640000
opls_146-843    H    0.31796000    0.88927004    0.29542006    0.11230000
opls_146-844    H    0.28578996    0.84120992    0.30904992    0.11800000
opls_140-845    H    0.47901005    0.80772989    0.85933989    0.13140000
opls_140-846    H    0.45325012    0.79024010    0.88994010    0.11500000
opls_140-847    H    0.52155004    0.25348008    0.56523006    0.10880000
opls_144-848    H    0.30683012    0.05950005    0.28153011    0.10110000
opls_146-849    H    0.73820006    0.40233001    0.29255003    0.12640000
opls_146-850    H    0.68204000    0.38927004    0.20457994    0.11220000
opls_146-851    H    0.71421004    0.34120992    0.19095008    0.11800000
opls_140-852    H    0.77098995    0.89066011    0.55772989    0.13140000
opls_140-853    H    0.79674988    0.86005990    0.54024010    0.11500000
opls_140-854    H    0.72844996    0.18476994    0.00348008    0.10880000
opls_144-855    H    0.94316988    0.46846989    0.80950005    0.10110000
opls_146-856    H    0.51179994    0.45744997    0.15233001    0.12640000
opls_146-857    H    0.56796000    0.54542006    0.13927004    0.11220000
opls_146-858    H    0.53578996    0.55904992    0.09120992    0.11800000
opls_140-859    H    0.72901005    0.10933989    0.05772989    0.13140000
opls_140-860    H    0.70325012    0.13994010    0.04024010    0.11500000
opls_140-861    H    0.77155004    0.81523006    0.50348008    0.10880000
opls_144-862    H    0.55683012    0.53153011    0.30950005    0.10110000
opls_146-863    H    0.98820006    0.54255003    0.65233001    0.12640000
opls_146-864    H    0.93204000    0.45457994    0.63927004    0.11220000
opls_146-865    H    0.96421004    0.44095008    0.59120992    0.11800000
opls_140-866    H    0.27098995    0.60933989    0.44227011    0.13140000
opls_140-867    H    0.29674988    0.63994010    0.45975990    0.11500000
opls_140-868    H    0.22844996    0.31523006    0.99651992    0.10880000
opls_144-869    H    0.44316988    0.03153011    0.19049995    0.10110000
opls_146-870    H    0.01179994    0.04255003    0.84766999    0.12650000
opls_146-871    H    0.06796000    0.95457994    0.86072996    0.11220000
opls_146-872    H    0.03578996    0.94095008    0.90879008    0.11810000
opls_140-873    H    0.22901005    0.39066011    0.94227011    0.13140000
opls_140-874    H    0.20325012    0.36005990    0.95975990    0.11500000
opls_140-875    H    0.27155004    0.68476994    0.49651992    0.10880000
opls_144-876    H    0.05683012    0.96846989    0.69049995    0.10110000
opls_146-877    H    0.48820006    0.95744997    0.34766999    0.12640000
opls_146-878    H    0.43204000    0.04542006    0.36072996    0.11220000
opls_146-879    H    0.46421004    0.05904992    0.40879008    0.11800000
opls_140-880    H    0.60933989    0.44227011    0.27098995    0.13140000
opls_140-881    H    0.63994010    0.45975990    0.29674988    0.11500000
opls_140-882    H    0.31523006    0.99651992    0.22844996    0.10880000
opls_144-883    H    0.03153011    0.19049995    0.44316988    0.10110000
opls_146-884    H    0.04255003    0.84766999    0.01179994    0.12640000
opls_146-885    H    0.95457994    0.86072996    0.06796000    0.11220000
opls_146-886    H    0.94095008    0.90879008    0.03578996    0.11800000
opls_140-887    H    0.39066011    0.94227011    0.22901005    0.13150000
opls_140-888    H    0.36005990    0.95975990    0.20325012    0.11500000
opls_140-889    H    0.68476994    0.49651992    0.27155004    0.10880000
opls_144-890    H    0.96846989    0.69049995    0.05683012    0.10110000
opls_146-891    H    0.95744997    0.34766999    0.48820006    0.12640000
opls_146-892    H    0.04542006    0.36072996    0.43204000    0.11220000
opls_146-893    H    0.05904992    0.40879008    0.46421004    0.11800000
opls_140-894    H    0.89066011    0.55772989    0.77098995    0.13140000
opls_140-895    H    0.86005990    0.54024010    0.79674988    0.11500000
opls_140-896    H    0.18476994    0.00348008    0.72844996    0.10880000
opls_144-897    H    0.46846989    0.80950005    0.94316988    0.10110000
opls_146-898    H    0.45744997    0.15233001    0.51179994    0.12640000
opls_146-899    H    0.54542006    0.13927004    0.56796000    0.11220000
opls_146-900    H    0.55904992    0.09120992    0.53578996    0.11800000
opls_140-901    H    0.10933989    0.05772989    0.72901005    0.13140000
opls_140-902    H    0.13994010    0.04024010    0.70325012    0.11500000
opls_140-903    H    0.81523006    0.50348008    0.77155004    0.10880000
opls_144-904    H    0.53153011    0.30950005    0.55683012    0.10110000
opls_146-905    H    0.54255003    0.65233001    0.98820006    0.12650000
opls_146-906    H    0.45457994    0.63927004    0.93204000    0.11220000
opls_146-907    H    0.44095008    0.59120992    0.96421004    0.11800000
opls_140-908    H    0.94227011    0.22901005    0.39066011    0.13150000
opls_140-909    H    0.95975990    0.20325012    0.36005990    0.11500000
opls_140-910    H    0.49651992    0.27155004    0.68476994    0.10880000
opls_144-911    H    0.69049995    0.05683012    0.96846989    0.10110000
opls_146-912    H    0.34766999    0.48820006    0.95744997    0.12640000
opls_146-913    H    0.36072996    0.43204000    0.04542006    0.11220000
opls_146-914    H    0.40879008    0.46421004    0.05904992    0.11800000
opls_140-915    H    0.44227011    0.27098995    0.60933989    0.13140000
opls_140-916    H    0.45975990    0.29674988    0.63994010    0.11500000
opls_140-917    H    0.99651992    0.22844996    0.31523006    0.10880000
opls_144-918    H    0.19049995    0.44316988    0.03153011    0.10110000
opls_146-919    H    0.84766999    0.01179994    0.04255003    0.12640000
opls_146-920    H    0.86072996    0.06796000    0.95457994    0.11220000
opls_146-921    H    0.90879008    0.03578996    0.94095008    0.11800000
opls_140-922    H    0.05772989    0.72901005    0.10933989    0.13140000
opls_140-923    H    0.04024010    0.70325012    0.13994010    0.11500000
opls_140-924    H    0.50348008    0.77155004    0.81523006    0.10880000
opls_144-925    H    0.30950005    0.55683012    0.53153011    0.10110000
opls_146-926    H    0.65233001    0.98820006    0.54255003    0.12640000
opls_146-927    H    0.63927004    0.93204000    0.45457994    0.11220000
opls_146-928    H    0.59120992    0.96421004    0.44095008    0.11800000
opls_140-929    H    0.55772989    0.77098995    0.89066011    0.13140000
opls_140-930    H    0.54024010    0.79674988    0.86005990    0.11500000
opls_140-931    H    0.00348008    0.72844996    0.18476994    0.10880000
opls_144-932    H    0.80950005    0.94316988    0.46846989    0.10120000
opls_146-933    H    0.15233001    0.51179994    0.45744997    0.12650000
opls_146-934    H    0.13927004    0.56796000    0.54542006    0.11220000
opls_146-935    H    0.09120992    0.53578996    0.55904992    0.11800000
opls_719-936    F    0.21669997    0.77566002    0.64757007    -0.10030000
opls_719-937    F    0.28330003    0.22433998    0.14757007    -0.10020000
opls_719-938    F    0.78330003    0.27566002    0.85242993    -0.10030000
opls_719-939    F    0.71669997    0.72433998    0.35242993    -0.10030000
opls_719-940    F    0.64757007    0.21669997    0.77566002    -0.10030000
opls_719-941    F    0.14757007    0.28330003    0.22433998    -0.10030000
opls_719-942    F    0.85242993    0.78330003    0.27566002    -0.10030000
opls_719-943    F    0.35242993    0.71669997    0.72433998    -0.10030000
opls_719-944    F    0.27566002    0.85242993    0.78330003    -0.10030000
opls_719-945    F    0.72433998    0.35242993    0.71669997    -0.10030000
opls_719-946    F    0.77566002    0.64757007    0.21669997    -0.10030000
opls_719-947    F    0.22433998    0.14757007    0.28330003    -0.10030000
opls_719-948    F    0.02566002    0.46669997    0.89757007    -0.10030000
opls_719-949    F    0.47433998    0.53330003    0.39757007    -0.10030000
opls_719-950    F    0.52566002    0.03330003    0.10242993    -0.10030000
opls_719-951    F    0.97433998    0.96669997    0.60242993    -0.10030000
opls_719-952    F    0.46669997    0.89757007    0.02566002    -0.10030000
opls_719-953    F    0.53330003    0.39757007    0.47433998    -0.10030000
opls_719-954    F    0.03330003    0.10242993    0.52566002    -0.10030000
opls_719-955    F    0.96669997    0.60242993    0.97433998    -0.10030000
opls_719-956    F    0.10242993    0.52566002    0.03330003    -0.10030000
opls_719-957    F    0.60242993    0.97433998    0.96669997    -0.10030000
opls_719-958    F    0.89757007    0.02566002    0.46669997    -0.10020000
opls_719-959    F    0.39757007    0.47433998    0.53330003    -0.10030000
opls_719-960    F    0.78330003    0.72433998    0.64757007    -0.10030000
opls_719-961    F    0.71669997    0.27566002    0.14757007    -0.10030000
opls_719-962    F    0.21669997    0.22433998    0.85242993    -0.10030000
opls_719-963    F    0.28330003    0.77566002    0.35242993    -0.10030000
opls_719-964    F    0.35242993    0.28330003    0.77566002    -0.10030000
opls_719-965    F    0.85242993    0.21669997    0.22433998    -0.10030000
opls_719-966    F    0.14757007    0.71669997    0.27566002    -0.10030000
opls_719-967    F    0.64757007    0.78330003    0.72433998    -0.10030000
opls_719-968    F    0.72433998    0.64757007    0.78330003    -0.10030000
opls_719-969    F    0.27566002    0.14757007    0.71669997    -0.10030000
opls_719-970    F    0.22433998    0.85242993    0.21669997    -0.10030000
opls_719-971    F    0.77566002    0.35242993    0.28330003    -0.10030000
opls_719-972    F    0.47433998    0.46669997    0.10242993    -0.10030000
opls_719-973    F    0.02566002    0.53330003    0.60242993    -0.10030000
opls_719-974    F    0.97433998    0.03330003    0.89757007    -0.10030000
opls_719-975    F    0.52566002    0.96669997    0.39757007    -0.10030000
opls_719-976    F    0.03330003    0.89757007    0.97433998    -0.10030000
opls_719-977    F    0.96669997    0.39757007    0.52566002    -0.10030000
opls_719-978    F    0.46669997    0.10242993    0.47433998    -0.10030000
opls_719-979    F    0.53330003    0.60242993    0.02566002    -0.10030000
opls_719-980    F    0.39757007    0.52566002    0.96669997    -0.10030000
opls_719-981    F    0.89757007    0.97433998    0.03330003    -0.10030000
opls_719-982    F    0.60242993    0.02566002    0.53330003    -0.10030000
opls_719-983    F    0.10242993    0.47433998    0.46669997    -0.10030000
