#======================================================================
# Crystal Data Generated By AuToFF
#----------------------------------------------------------------------

data_AuToFF_phase_1

_cell_length_a                         27.8544
_cell_length_b                         27.8544
_cell_length_c                         27.8544
_cell_angle_alpha                      90.00
_cell_angle_beta                       90.00
_cell_angle_gamma                      90.00
_symmetry_space_group_name_H-M_alt     'P 1'
_symmetry_space_group_IT_number        1

loop_
_space_group_symop_operation_xyz
   'x, y, z'

loop_
   _atom_site_label
   _atom_site_type_symbol
   _atom_site_fract_x
   _atom_site_fract_y
   _atom_site_fract_z
   _atom_site_charge
opls_523-0    C    0.98183016    0.32098986    0.01740012    0.22700000
opls_700-1    C    0.96365996    0.36443004    0.03510002    0.61900000
opls_521-2    C    0.98181006    0.40798007    0.01747013    0.47300000
opls_523-3    C    0.92828996    0.36589982    0.07063983    0.22700000
opls_522-4    C    0.91391988    0.41006017    0.08964006    -0.44700000
opls_521-5    C    0.93421004    0.45263011    0.07202991    0.47300000
opls_700-6    C    0.07141996    0.49687015    0.90085013    0.61900000
opls_523-7    C    0.07316008    0.53929002    0.92718996    0.22700000
opls_145-8    C    0.07093996    0.58320014    0.90365005    -0.11500000
opls_700-9    C    0.06749993    0.58492985    0.85337002    0.61900000
opls_145-10    C    0.06955993    0.54229996    0.82713000    -0.11500000
opls_523-11    C    0.07160018    0.49845985    0.85072017    0.22700000
opls_145-12    C    0.64369005    0.78883982    0.42139985    -0.11500000
opls_145-13    C    0.65454004    0.78624993    0.37246001    -0.11500000
opls_145-14    C    0.65513994    0.74266005    0.34919007    -0.11500000
opls_700-15    C    0.64593996    0.70037983    0.37453006    0.61900000
opls_145-16    C    0.63503001    0.70275001    0.42377003    -0.11500000
opls_145-17    C    0.63302997    0.74720008    0.44691000    -0.11500000
opls_142-18    C    0.57198001    0.32790008    0.86946012    -0.11500000
opls_701-19    C    0.14815002    0.14815002    0.14815002    -0.39500000
opls_523-20    C    0.01816984    0.67901014    0.01740012    0.22700000
opls_700-21    C    0.03634004    0.63556996    0.03510002    0.61900000
opls_521-22    C    0.01818994    0.59201993    0.01747013    0.47300000
opls_523-23    C    0.07171004    0.63410018    0.07063983    0.22700000
opls_522-24    C    0.08608012    0.58993983    0.08964006    -0.44700000
opls_521-25    C    0.06578996    0.54736989    0.07202991    0.47300000
opls_700-26    C    0.92858004    0.50312985    0.90085013    0.61900000
opls_523-27    C    0.92683992    0.46070998    0.92718996    0.22700000
opls_145-28    C    0.92906004    0.41679986    0.90365005    -0.11500000
opls_700-29    C    0.93250007    0.41507015    0.85337002    0.61900000
opls_145-30    C    0.93044007    0.45770004    0.82713000    -0.11500000
opls_523-31    C    0.92839982    0.50154015    0.85072017    0.22700000
opls_145-32    C    0.35630995    0.21116018    0.42139985    -0.11500000
opls_145-33    C    0.34545996    0.21375007    0.37246001    -0.11500000
opls_145-34    C    0.34486006    0.25733995    0.34919007    -0.11500000
opls_700-35    C    0.35406004    0.29962017    0.37453006    0.61900000
opls_145-36    C    0.36496999    0.29724999    0.42377003    -0.11500000
opls_145-37    C    0.36697003    0.25279992    0.44691000    -0.11500000
opls_142-38    C    0.42801999    0.67209992    0.86946012    -0.11500000
opls_701-39    C    0.85184998    0.85184998    0.14815002    -0.39500000
opls_523-40    C    0.01816984    0.32098986    0.98259988    0.22700000
opls_700-41    C    0.03634004    0.36443004    0.96489998    0.61900000
opls_521-42    C    0.01818994    0.40798007    0.98252987    0.47300000
opls_523-43    C    0.07171004    0.36589982    0.92936017    0.22700000
opls_522-44    C    0.08608012    0.41006017    0.91035994    -0.44700000
opls_521-45    C    0.06578996    0.45263011    0.92797009    0.47300000
opls_700-46    C    0.92858004    0.49687015    0.09914987    0.61900000
opls_523-47    C    0.92683992    0.53929002    0.07281004    0.22700000
opls_145-48    C    0.92906004    0.58320014    0.09634995    -0.11500000
opls_700-49    C    0.93250007    0.58492985    0.14662998    0.61900000
opls_145-50    C    0.93044007    0.54229996    0.17287000    -0.11500000
opls_523-51    C    0.92839982    0.49845985    0.14927983    0.22700000
opls_145-52    C    0.35630995    0.78883982    0.57860015    -0.11500000
opls_145-53    C    0.34545996    0.78624993    0.62753999    -0.11500000
opls_145-54    C    0.34486006    0.74266005    0.65080993    -0.11500000
opls_700-55    C    0.35406004    0.70037983    0.62546994    0.61900000
opls_145-56    C    0.36496999    0.70275001    0.57622997    -0.11500000
opls_145-57    C    0.36697003    0.74720008    0.55309000    -0.11500000
opls_142-58    C    0.42801999    0.32790008    0.13053988    -0.11500000
opls_701-59    C    0.85184998    0.14815002    0.85184998    -0.39500000
opls_523-60    C    0.98183016    0.67901014    0.98259988    0.22700000
opls_700-61    C    0.96365996    0.63556996    0.96489998    0.61900000
opls_521-62    C    0.98181006    0.59201993    0.98252987    0.47300000
opls_523-63    C    0.92828996    0.63410018    0.92936017    0.22700000
opls_522-64    C    0.91391988    0.58993983    0.91035994    -0.44700000
opls_521-65    C    0.93421004    0.54736989    0.92797009    0.47300000
opls_700-66    C    0.07141996    0.50312985    0.09914987    0.61900000
opls_523-67    C    0.07316008    0.46070998    0.07281004    0.22700000
opls_145-68    C    0.07093996    0.41679986    0.09634995    -0.11500000
opls_700-69    C    0.06749993    0.41507015    0.14662998    0.61900000
opls_145-70    C    0.06955993    0.45770004    0.17287000    -0.11500000
opls_523-71    C    0.07160018    0.50154015    0.14927983    0.22700000
opls_145-72    C    0.64369005    0.21116018    0.57860015    -0.11500000
opls_145-73    C    0.65454004    0.21375007    0.62753999    -0.11500000
opls_145-74    C    0.65513994    0.25733995    0.65080993    -0.11500000
opls_700-75    C    0.64593996    0.29962017    0.62546994    0.61900000
opls_145-76    C    0.63503001    0.29724999    0.57622997    -0.11500000
opls_145-77    C    0.63302997    0.25279992    0.55309000    -0.11500000
opls_142-78    C    0.57198001    0.67209992    0.13053988    -0.11500000
opls_701-79    C    0.14815002    0.85184998    0.85184998    -0.39500000
opls_523-80    C    0.01740012    0.98183016    0.32098986    0.22700000
opls_700-81    C    0.03510002    0.96365996    0.36443004    0.61900000
opls_521-82    C    0.01747013    0.98181006    0.40798007    0.47300000
opls_523-83    C    0.07063983    0.92828996    0.36589982    0.22700000
opls_522-84    C    0.08964006    0.91391988    0.41006017    -0.44700000
opls_521-85    C    0.07202991    0.93421004    0.45263011    0.47300000
opls_700-86    C    0.90085013    0.07141996    0.49687015    0.61900000
opls_523-87    C    0.92718996    0.07316008    0.53929002    0.22700000
opls_145-88    C    0.90365005    0.07093996    0.58320014    -0.11500000
opls_700-89    C    0.85337002    0.06749993    0.58492985    0.61900000
opls_145-90    C    0.82713000    0.06955993    0.54229996    -0.11500000
opls_523-91    C    0.85072017    0.07160018    0.49845985    0.22700000
opls_145-92    C    0.42139985    0.64369005    0.78883982    -0.11500000
opls_145-93    C    0.37246001    0.65454004    0.78624993    -0.11500000
opls_145-94    C    0.34919007    0.65513994    0.74266005    -0.11500000
opls_700-95    C    0.37453006    0.64593996    0.70037983    0.61900000
opls_145-96    C    0.42377003    0.63503001    0.70275001    -0.11500000
opls_145-97    C    0.44691000    0.63302997    0.74720008    -0.11500000
opls_142-98    C    0.86946012    0.57198001    0.32790008    -0.11500000
opls_523-99    C    0.01740012    0.01816984    0.67901014    0.22700000
opls_700-100    C    0.03510002    0.03634004    0.63556996    0.61900000
opls_521-101    C    0.01747013    0.01818994    0.59201993    0.47300000
opls_523-102    C    0.07063983    0.07171004    0.63410018    0.22700000
opls_522-103    C    0.08964006    0.08608012    0.58993983    -0.44700000
opls_521-104    C    0.07202991    0.06578996    0.54736989    0.47300000
opls_700-105    C    0.90085013    0.92858004    0.50312985    0.61900000
opls_523-106    C    0.92718996    0.92683992    0.46070998    0.22700000
opls_145-107    C    0.90365005    0.92906004    0.41679986    -0.11500000
opls_700-108    C    0.85337002    0.93250007    0.41507015    0.61900000
opls_145-109    C    0.82713000    0.93044007    0.45770004    -0.11500000
opls_523-110    C    0.85072017    0.92839982    0.50154015    0.22700000
opls_145-111    C    0.42139985    0.35630995    0.21116018    -0.11500000
opls_145-112    C    0.37246001    0.34545996    0.21375007    -0.11500000
opls_145-113    C    0.34919007    0.34486006    0.25733995    -0.11500000
opls_700-114    C    0.37453006    0.35406004    0.29962017    0.61900000
opls_145-115    C    0.42377003    0.36496999    0.29724999    -0.11500000
opls_145-116    C    0.44691000    0.36697003    0.25279992    -0.11500000
opls_142-117    C    0.86946012    0.42801999    0.67209992    -0.11500000
opls_523-118    C    0.98259988    0.01816984    0.32098986    0.22700000
opls_700-119    C    0.96489998    0.03634004    0.36443004    0.61900000
opls_521-120    C    0.98252987    0.01818994    0.40798007    0.47300000
opls_523-121    C    0.92936017    0.07171004    0.36589982    0.22700000
opls_522-122    C    0.91035994    0.08608012    0.41006017    -0.44700000
opls_521-123    C    0.92797009    0.06578996    0.45263011    0.47300000
opls_700-124    C    0.09914987    0.92858004    0.49687015    0.61900000
opls_523-125    C    0.07281004    0.92683992    0.53929002    0.22700000
opls_145-126    C    0.09634995    0.92906004    0.58320014    -0.11500000
opls_700-127    C    0.14662998    0.93250007    0.58492985    0.61900000
opls_145-128    C    0.17287000    0.93044007    0.54229996    -0.11500000
opls_523-129    C    0.14927983    0.92839982    0.49845985    0.22700000
opls_145-130    C    0.57860015    0.35630995    0.78883982    -0.11500000
opls_145-131    C    0.62753999    0.34545996    0.78624993    -0.11500000
opls_145-132    C    0.65080993    0.34486006    0.74266005    -0.11500000
opls_700-133    C    0.62546994    0.35406004    0.70037983    0.61900000
opls_145-134    C    0.57622997    0.36496999    0.70275001    -0.11500000
opls_145-135    C    0.55309000    0.36697003    0.74720008    -0.11500000
opls_142-136    C    0.13053988    0.42801999    0.32790008    -0.11500000
opls_523-137    C    0.98259988    0.98183016    0.67901014    0.22700000
opls_700-138    C    0.96489998    0.96365996    0.63556996    0.61900000
opls_521-139    C    0.98252987    0.98181006    0.59201993    0.47300000
opls_523-140    C    0.92936017    0.92828996    0.63410018    0.22700000
opls_522-141    C    0.91035994    0.91391988    0.58993983    -0.44700000
opls_521-142    C    0.92797009    0.93421004    0.54736989    0.47300000
opls_700-143    C    0.09914987    0.07141996    0.50312985    0.61900000
opls_523-144    C    0.07281004    0.07316008    0.46070998    0.22700000
opls_145-145    C    0.09634995    0.07093996    0.41679986    -0.11500000
opls_700-146    C    0.14662998    0.06749993    0.41507015    0.61900000
opls_145-147    C    0.17287000    0.06955993    0.45770004    -0.11500000
opls_523-148    C    0.14927983    0.07160018    0.50154015    0.22700000
opls_145-149    C    0.57860015    0.64369005    0.21116018    -0.11500000
opls_145-150    C    0.62753999    0.65454004    0.21375007    -0.11500000
opls_145-151    C    0.65080993    0.65513994    0.25733995    -0.11500000
opls_700-152    C    0.62546994    0.64593996    0.29962017    0.61900000
opls_145-153    C    0.57622997    0.63503001    0.29724999    -0.11500000
opls_145-154    C    0.55309000    0.63302997    0.25279992    -0.11500000
opls_142-155    C    0.13053988    0.57198001    0.67209992    -0.11500000
opls_523-156    C    0.32098986    0.98259988    0.01816984    0.22700000
opls_700-157    C    0.36443004    0.96489998    0.03634004    0.61900000
opls_521-158    C    0.40798007    0.98252987    0.01818994    0.47300000
opls_523-159    C    0.36589982    0.92936017    0.07171004    0.22700000
opls_522-160    C    0.41006017    0.91035994    0.08608012    -0.44700000
opls_521-161    C    0.45263011    0.92797009    0.06578996    0.47300000
opls_700-162    C    0.49687015    0.09914987    0.92858004    0.61900000
opls_523-163    C    0.53929002    0.07281004    0.92683992    0.22700000
opls_145-164    C    0.58320014    0.09634995    0.92906004    -0.11500000
opls_700-165    C    0.58492985    0.14662998    0.93250007    0.61900000
opls_145-166    C    0.54229996    0.17287000    0.93044007    -0.11500000
opls_523-167    C    0.49845985    0.14927983    0.92839982    0.22700000
opls_145-168    C    0.78883982    0.57860015    0.35630995    -0.11500000
opls_145-169    C    0.78624993    0.62753999    0.34545996    -0.11500000
opls_145-170    C    0.74266005    0.65080993    0.34486006    -0.11500000
opls_700-171    C    0.70037983    0.62546994    0.35406004    0.61900000
opls_145-172    C    0.70275001    0.57622997    0.36496999    -0.11500000
opls_145-173    C    0.74720008    0.55309000    0.36697003    -0.11500000
opls_142-174    C    0.32790008    0.13053988    0.42801999    -0.11500000
opls_523-175    C    0.67901014    0.98259988    0.98183016    0.22700000
opls_700-176    C    0.63556996    0.96489998    0.96365996    0.61900000
opls_521-177    C    0.59201993    0.98252987    0.98181006    0.47300000
opls_523-178    C    0.63410018    0.92936017    0.92828996    0.22700000
opls_522-179    C    0.58993983    0.91035994    0.91391988    -0.44700000
opls_521-180    C    0.54736989    0.92797009    0.93421004    0.47300000
opls_700-181    C    0.50312985    0.09914987    0.07141996    0.61900000
opls_523-182    C    0.46070998    0.07281004    0.07316008    0.22700000
opls_145-183    C    0.41679986    0.09634995    0.07093996    -0.11500000
opls_700-184    C    0.41507015    0.14662998    0.06749993    0.61900000
opls_145-185    C    0.45770004    0.17287000    0.06955993    -0.11500000
opls_523-186    C    0.50154015    0.14927983    0.07160018    0.22700000
opls_145-187    C    0.21116018    0.57860015    0.64369005    -0.11500000
opls_145-188    C    0.21375007    0.62753999    0.65454004    -0.11500000
opls_145-189    C    0.25733995    0.65080993    0.65513994    -0.11500000
opls_700-190    C    0.29962017    0.62546994    0.64593996    0.61900000
opls_145-191    C    0.29724999    0.57622997    0.63503001    -0.11500000
opls_145-192    C    0.25279992    0.55309000    0.63302997    -0.11500000
opls_142-193    C    0.67209992    0.13053988    0.57198001    -0.11500000
opls_523-194    C    0.32098986    0.01740012    0.98183016    0.22700000
opls_700-195    C    0.36443004    0.03510002    0.96365996    0.61900000
opls_521-196    C    0.40798007    0.01747013    0.98181006    0.47300000
opls_523-197    C    0.36589982    0.07063983    0.92828996    0.22700000
opls_522-198    C    0.41006017    0.08964006    0.91391988    -0.44700000
opls_521-199    C    0.45263011    0.07202991    0.93421004    0.47300000
opls_700-200    C    0.49687015    0.90085013    0.07141996    0.61900000
opls_523-201    C    0.53929002    0.92718996    0.07316008    0.22700000
opls_145-202    C    0.58320014    0.90365005    0.07093996    -0.11500000
opls_700-203    C    0.58492985    0.85337002    0.06749993    0.61900000
opls_145-204    C    0.54229996    0.82713000    0.06955993    -0.11500000
opls_523-205    C    0.49845985    0.85072017    0.07160018    0.22700000
opls_145-206    C    0.78883982    0.42139985    0.64369005    -0.11500000
opls_145-207    C    0.78624993    0.37246001    0.65454004    -0.11500000
opls_145-208    C    0.74266005    0.34919007    0.65513994    -0.11500000
opls_700-209    C    0.70037983    0.37453006    0.64593996    0.61900000
opls_145-210    C    0.70275001    0.42377003    0.63503001    -0.11500000
opls_145-211    C    0.74720008    0.44691000    0.63302997    -0.11500000
opls_142-212    C    0.32790008    0.86946012    0.57198001    -0.11500000
opls_523-213    C    0.67901014    0.01740012    0.01816984    0.22700000
opls_700-214    C    0.63556996    0.03510002    0.03634004    0.61900000
opls_521-215    C    0.59201993    0.01747013    0.01818994    0.47300000
opls_523-216    C    0.63410018    0.07063983    0.07171004    0.22700000
opls_522-217    C    0.58993983    0.08964006    0.08608012    -0.44700000
opls_521-218    C    0.54736989    0.07202991    0.06578996    0.47300000
opls_700-219    C    0.50312985    0.90085013    0.92858004    0.61900000
opls_523-220    C    0.46070998    0.92718996    0.92683992    0.22700000
opls_145-221    C    0.41679986    0.90365005    0.92906004    -0.11500000
opls_700-222    C    0.41507015    0.85337002    0.93250007    0.61900000
opls_145-223    C    0.45770004    0.82713000    0.93044007    -0.11500000
opls_523-224    C    0.50154015    0.85072017    0.92839982    0.22700000
opls_145-225    C    0.21116018    0.42139985    0.35630995    -0.11500000
opls_145-226    C    0.21375007    0.37246001    0.34545996    -0.11500000
opls_145-227    C    0.25733995    0.34919007    0.34486006    -0.11500000
opls_700-228    C    0.29962017    0.37453006    0.35406004    0.61900000
opls_145-229    C    0.29724999    0.42377003    0.36496999    -0.11500000
opls_145-230    C    0.25279992    0.44691000    0.36697003    -0.11500000
opls_142-231    C    0.67209992    0.86946012    0.42801999    -0.11500000
opls_523-232    C    0.82098986    0.48183016    0.48259988    0.22700000
opls_700-233    C    0.86443004    0.46365996    0.46489998    0.61900000
opls_521-234    C    0.90798007    0.48181006    0.48252987    0.47300000
opls_523-235    C    0.86589982    0.42828996    0.42936017    0.22700000
opls_522-236    C    0.91006017    0.41391988    0.41035994    -0.44700000
opls_521-237    C    0.95263011    0.43421004    0.42797009    0.47300000
opls_700-238    C    0.99687015    0.57141996    0.59914987    0.61900000
opls_523-239    C    0.03929002    0.57316008    0.57281004    0.22700000
opls_145-240    C    0.08320014    0.57093996    0.59634995    -0.11500000
opls_700-241    C    0.08492985    0.56749993    0.64662998    0.61900000
opls_145-242    C    0.04229996    0.56955993    0.67287000    -0.11500000
opls_523-243    C    0.99845985    0.57160018    0.64927983    0.22700000
opls_145-244    C    0.28883982    0.14369005    0.07860015    -0.11500000
opls_145-245    C    0.28624993    0.15454004    0.12753999    -0.11500000
opls_145-246    C    0.24266005    0.15513994    0.15080993    -0.11500000
opls_700-247    C    0.20037983    0.14593996    0.12546994    0.61900000
opls_145-248    C    0.20275001    0.13503001    0.07622997    -0.11500000
opls_145-249    C    0.24720008    0.13302997    0.05309000    -0.11500000
opls_142-250    C    0.82790008    0.07198001    0.63053988    -0.11500000
opls_701-251    C    0.64815002    0.64815002    0.35184998    -0.39500000
opls_523-252    C    0.17901014    0.51816984    0.48259988    0.22700000
opls_700-253    C    0.13556996    0.53634004    0.46489998    0.61900000
opls_521-254    C    0.09201993    0.51818994    0.48252987    0.47300000
opls_523-255    C    0.13410018    0.57171004    0.42936017    0.22700000
opls_522-256    C    0.08993983    0.58608012    0.41035994    -0.44700000
opls_521-257    C    0.04736989    0.56578996    0.42797009    0.47300000
opls_700-258    C    0.00312985    0.42858004    0.59914987    0.61900000
opls_523-259    C    0.96070998    0.42683992    0.57281004    0.22700000
opls_145-260    C    0.91679986    0.42906004    0.59634995    -0.11500000
opls_700-261    C    0.91507015    0.43250007    0.64662998    0.61900000
opls_145-262    C    0.95770004    0.43044007    0.67287000    -0.11500000
opls_523-263    C    0.00154015    0.42839982    0.64927983    0.22700000
opls_145-264    C    0.71116018    0.85630995    0.07860015    -0.11500000
opls_145-265    C    0.71375007    0.84545996    0.12753999    -0.11500000
opls_145-266    C    0.75733995    0.84486006    0.15080993    -0.11500000
opls_700-267    C    0.79962017    0.85406004    0.12546994    0.61900000
opls_145-268    C    0.79724999    0.86496999    0.07622997    -0.11500000
opls_145-269    C    0.75279992    0.86697003    0.05309000    -0.11500000
opls_142-270    C    0.17209992    0.92801999    0.63053988    -0.11500000
opls_701-271    C    0.35184998    0.35184998    0.35184998    -0.39500000
opls_523-272    C    0.82098986    0.51816984    0.51740012    0.22700000
opls_700-273    C    0.86443004    0.53634004    0.53510002    0.61900000
opls_521-274    C    0.90798007    0.51818994    0.51747013    0.47300000
opls_523-275    C    0.86589982    0.57171004    0.57063983    0.22700000
opls_522-276    C    0.91006017    0.58608012    0.58964006    -0.44700000
opls_521-277    C    0.95263011    0.56578996    0.57202991    0.47300000
opls_700-278    C    0.99687015    0.42858004    0.40085013    0.61900000
opls_523-279    C    0.03929002    0.42683992    0.42718996    0.22700000
opls_145-280    C    0.08320014    0.42906004    0.40365005    -0.11500000
opls_700-281    C    0.08492985    0.43250007    0.35337002    0.61900000
opls_145-282    C    0.04229996    0.43044007    0.32713000    -0.11500000
opls_523-283    C    0.99845985    0.42839982    0.35072017    0.22700000
opls_145-284    C    0.28883982    0.85630995    0.92139985    -0.11500000
opls_145-285    C    0.28624993    0.84545996    0.87246001    -0.11500000
opls_145-286    C    0.24266005    0.84486006    0.84919007    -0.11500000
opls_700-287    C    0.20037983    0.85406004    0.87453006    0.61900000
opls_145-288    C    0.20275001    0.86496999    0.92377003    -0.11500000
opls_145-289    C    0.24720008    0.86697003    0.94691000    -0.11500000
opls_142-290    C    0.82790008    0.92801999    0.36946012    -0.11500000
opls_701-291    C    0.64815002    0.35184998    0.64815002    -0.39500000
opls_523-292    C    0.17901014    0.48183016    0.51740012    0.22700000
opls_700-293    C    0.13556996    0.46365996    0.53510002    0.61900000
opls_521-294    C    0.09201993    0.48181006    0.51747013    0.47300000
opls_523-295    C    0.13410018    0.42828996    0.57063983    0.22700000
opls_522-296    C    0.08993983    0.41391988    0.58964006    -0.44700000
opls_521-297    C    0.04736989    0.43421004    0.57202991    0.47300000
opls_700-298    C    0.00312985    0.57141996    0.40085013    0.61900000
opls_523-299    C    0.96070998    0.57316008    0.42718996    0.22700000
opls_145-300    C    0.91679986    0.57093996    0.40365005    -0.11500000
opls_700-301    C    0.91507015    0.56749993    0.35337002    0.61900000
opls_145-302    C    0.95770004    0.56955993    0.32713000    -0.11500000
opls_523-303    C    0.00154015    0.57160018    0.35072017    0.22700000
opls_145-304    C    0.71116018    0.14369005    0.92139985    -0.11500000
opls_145-305    C    0.71375007    0.15454004    0.87246001    -0.11500000
opls_145-306    C    0.75733995    0.15513994    0.84919007    -0.11500000
opls_700-307    C    0.79962017    0.14593996    0.87453006    0.61900000
opls_145-308    C    0.79724999    0.13503001    0.92377003    -0.11500000
opls_145-309    C    0.75279992    0.13302997    0.94691000    -0.11500000
opls_142-310    C    0.17209992    0.07198001    0.36946012    -0.11500000
opls_701-311    C    0.35184998    0.64815002    0.64815002    -0.39500000
opls_523-312    C    0.48183016    0.51740012    0.17901014    0.22700000
opls_700-313    C    0.46365996    0.53510002    0.13556996    0.61900000
opls_521-314    C    0.48181006    0.51747013    0.09201993    0.47300000
opls_523-315    C    0.42828996    0.57063983    0.13410018    0.22700000
opls_522-316    C    0.41391988    0.58964006    0.08993983    -0.44700000
opls_521-317    C    0.43421004    0.57202991    0.04736989    0.47300000
opls_700-318    C    0.57141996    0.40085013    0.00312985    0.61900000
opls_523-319    C    0.57316008    0.42718996    0.96070998    0.22700000
opls_145-320    C    0.57093996    0.40365005    0.91679986    -0.11500000
opls_700-321    C    0.56749993    0.35337002    0.91507015    0.61900000
opls_145-322    C    0.56955993    0.32713000    0.95770004    -0.11500000
opls_523-323    C    0.57160018    0.35072017    0.00154015    0.22700000
opls_145-324    C    0.14369005    0.92139985    0.71116018    -0.11500000
opls_145-325    C    0.15454004    0.87246001    0.71375007    -0.11500000
opls_145-326    C    0.15513994    0.84919007    0.75733995    -0.11500000
opls_700-327    C    0.14593996    0.87453006    0.79962017    0.61900000
opls_145-328    C    0.13503001    0.92377003    0.79724999    -0.11500000
opls_145-329    C    0.13302997    0.94691000    0.75279992    -0.11500000
opls_142-330    C    0.07198001    0.36946012    0.17209992    -0.11500000
opls_523-331    C    0.51816984    0.51740012    0.82098986    0.22700000
opls_700-332    C    0.53634004    0.53510002    0.86443004    0.61900000
opls_521-333    C    0.51818994    0.51747013    0.90798007    0.47300000
opls_523-334    C    0.57171004    0.57063983    0.86589982    0.22700000
opls_522-335    C    0.58608012    0.58964006    0.91006017    -0.44700000
opls_521-336    C    0.56578996    0.57202991    0.95263011    0.47300000
opls_700-337    C    0.42858004    0.40085013    0.99687015    0.61900000
opls_523-338    C    0.42683992    0.42718996    0.03929002    0.22700000
opls_145-339    C    0.42906004    0.40365005    0.08320014    -0.11500000
opls_700-340    C    0.43250007    0.35337002    0.08492985    0.61900000
opls_145-341    C    0.43044007    0.32713000    0.04229996    -0.11500000
opls_523-342    C    0.42839982    0.35072017    0.99845985    0.22700000
opls_145-343    C    0.85630995    0.92139985    0.28883982    -0.11500000
opls_145-344    C    0.84545996    0.87246001    0.28624993    -0.11500000
opls_145-345    C    0.84486006    0.84919007    0.24266005    -0.11500000
opls_700-346    C    0.85406004    0.87453006    0.20037983    0.61900000
opls_145-347    C    0.86496999    0.92377003    0.20275001    -0.11500000
opls_145-348    C    0.86697003    0.94691000    0.24720008    -0.11500000
opls_142-349    C    0.92801999    0.36946012    0.82790008    -0.11500000
opls_523-350    C    0.51816984    0.48259988    0.17901014    0.22700000
opls_700-351    C    0.53634004    0.46489998    0.13556996    0.61900000
opls_521-352    C    0.51818994    0.48252987    0.09201993    0.47300000
opls_523-353    C    0.57171004    0.42936017    0.13410018    0.22700000
opls_522-354    C    0.58608012    0.41035994    0.08993983    -0.44700000
opls_521-355    C    0.56578996    0.42797009    0.04736989    0.47300000
opls_700-356    C    0.42858004    0.59914987    0.00312985    0.61900000
opls_523-357    C    0.42683992    0.57281004    0.96070998    0.22700000
opls_145-358    C    0.42906004    0.59634995    0.91679986    -0.11500000
opls_700-359    C    0.43250007    0.64662998    0.91507015    0.61900000
opls_145-360    C    0.43044007    0.67287000    0.95770004    -0.11500000
opls_523-361    C    0.42839982    0.64927983    0.00154015    0.22700000
opls_145-362    C    0.85630995    0.07860015    0.71116018    -0.11500000
opls_145-363    C    0.84545996    0.12753999    0.71375007    -0.11500000
opls_145-364    C    0.84486006    0.15080993    0.75733995    -0.11500000
opls_700-365    C    0.85406004    0.12546994    0.79962017    0.61900000
opls_145-366    C    0.86496999    0.07622997    0.79724999    -0.11500000
opls_145-367    C    0.86697003    0.05309000    0.75279992    -0.11500000
opls_142-368    C    0.92801999    0.63053988    0.17209992    -0.11500000
opls_523-369    C    0.48183016    0.48259988    0.82098986    0.22700000
opls_700-370    C    0.46365996    0.46489998    0.86443004    0.61900000
opls_521-371    C    0.48181006    0.48252987    0.90798007    0.47300000
opls_523-372    C    0.42828996    0.42936017    0.86589982    0.22700000
opls_522-373    C    0.41391988    0.41035994    0.91006017    -0.44700000
opls_521-374    C    0.43421004    0.42797009    0.95263011    0.47300000
opls_700-375    C    0.57141996    0.59914987    0.99687015    0.61900000
opls_523-376    C    0.57316008    0.57281004    0.03929002    0.22700000
opls_145-377    C    0.57093996    0.59634995    0.08320014    -0.11500000
opls_700-378    C    0.56749993    0.64662998    0.08492985    0.61900000
opls_145-379    C    0.56955993    0.67287000    0.04229996    -0.11500000
opls_523-380    C    0.57160018    0.64927983    0.99845985    0.22700000
opls_145-381    C    0.14369005    0.07860015    0.28883982    -0.11500000
opls_145-382    C    0.15454004    0.12753999    0.28624993    -0.11500000
opls_145-383    C    0.15513994    0.15080993    0.24266005    -0.11500000
opls_700-384    C    0.14593996    0.12546994    0.20037983    0.61900000
opls_145-385    C    0.13503001    0.07622997    0.20275001    -0.11500000
opls_145-386    C    0.13302997    0.05309000    0.24720008    -0.11500000
opls_142-387    C    0.07198001    0.63053988    0.82790008    -0.11500000
opls_523-388    C    0.48259988    0.82098986    0.48183016    0.22700000
opls_700-389    C    0.46489998    0.86443004    0.46365996    0.61900000
opls_521-390    C    0.48252987    0.90798007    0.48181006    0.47300000
opls_523-391    C    0.42936017    0.86589982    0.42828996    0.22700000
opls_522-392    C    0.41035994    0.91006017    0.41391988    -0.44700000
opls_521-393    C    0.42797009    0.95263011    0.43421004    0.47300000
opls_700-394    C    0.59914987    0.99687015    0.57141996    0.61900000
opls_523-395    C    0.57281004    0.03929002    0.57316008    0.22700000
opls_145-396    C    0.59634995    0.08320014    0.57093996    -0.11500000
opls_700-397    C    0.64662998    0.08492985    0.56749993    0.61900000
opls_145-398    C    0.67287000    0.04229996    0.56955993    -0.11500000
opls_523-399    C    0.64927983    0.99845985    0.57160018    0.22700000
opls_145-400    C    0.07860015    0.28883982    0.14369005    -0.11500000
opls_145-401    C    0.12753999    0.28624993    0.15454004    -0.11500000
opls_145-402    C    0.15080993    0.24266005    0.15513994    -0.11500000
opls_700-403    C    0.12546994    0.20037983    0.14593996    0.61900000
opls_145-404    C    0.07622997    0.20275001    0.13503001    -0.11500000
opls_145-405    C    0.05309000    0.24720008    0.13302997    -0.11500000
opls_142-406    C    0.63053988    0.82790008    0.07198001    -0.11500000
opls_523-407    C    0.48259988    0.17901014    0.51816984    0.22700000
opls_700-408    C    0.46489998    0.13556996    0.53634004    0.61900000
opls_521-409    C    0.48252987    0.09201993    0.51818994    0.47300000
opls_523-410    C    0.42936017    0.13410018    0.57171004    0.22700000
opls_522-411    C    0.41035994    0.08993983    0.58608012    -0.44700000
opls_521-412    C    0.42797009    0.04736989    0.56578996    0.47300000
opls_700-413    C    0.59914987    0.00312985    0.42858004    0.61900000
opls_523-414    C    0.57281004    0.96070998    0.42683992    0.22700000
opls_145-415    C    0.59634995    0.91679986    0.42906004    -0.11500000
opls_700-416    C    0.64662998    0.91507015    0.43250007    0.61900000
opls_145-417    C    0.67287000    0.95770004    0.43044007    -0.11500000
opls_523-418    C    0.64927983    0.00154015    0.42839982    0.22700000
opls_145-419    C    0.07860015    0.71116018    0.85630995    -0.11500000
opls_145-420    C    0.12753999    0.71375007    0.84545996    -0.11500000
opls_145-421    C    0.15080993    0.75733995    0.84486006    -0.11500000
opls_700-422    C    0.12546994    0.79962017    0.85406004    0.61900000
opls_145-423    C    0.07622997    0.79724999    0.86496999    -0.11500000
opls_145-424    C    0.05309000    0.75279992    0.86697003    -0.11500000
opls_142-425    C    0.63053988    0.17209992    0.92801999    -0.11500000
opls_523-426    C    0.51740012    0.82098986    0.51816984    0.22700000
opls_700-427    C    0.53510002    0.86443004    0.53634004    0.61900000
opls_521-428    C    0.51747013    0.90798007    0.51818994    0.47300000
opls_523-429    C    0.57063983    0.86589982    0.57171004    0.22700000
opls_522-430    C    0.58964006    0.91006017    0.58608012    -0.44700000
opls_521-431    C    0.57202991    0.95263011    0.56578996    0.47300000
opls_700-432    C    0.40085013    0.99687015    0.42858004    0.61900000
opls_523-433    C    0.42718996    0.03929002    0.42683992    0.22700000
opls_145-434    C    0.40365005    0.08320014    0.42906004    -0.11500000
opls_700-435    C    0.35337002    0.08492985    0.43250007    0.61900000
opls_145-436    C    0.32713000    0.04229996    0.43044007    -0.11500000
opls_523-437    C    0.35072017    0.99845985    0.42839982    0.22700000
opls_145-438    C    0.92139985    0.28883982    0.85630995    -0.11500000
opls_145-439    C    0.87246001    0.28624993    0.84545996    -0.11500000
opls_145-440    C    0.84919007    0.24266005    0.84486006    -0.11500000
opls_700-441    C    0.87453006    0.20037983    0.85406004    0.61900000
opls_145-442    C    0.92377003    0.20275001    0.86496999    -0.11500000
opls_145-443    C    0.94691000    0.24720008    0.86697003    -0.11500000
opls_142-444    C    0.36946012    0.82790008    0.92801999    -0.11500000
opls_523-445    C    0.51740012    0.17901014    0.48183016    0.22700000
opls_700-446    C    0.53510002    0.13556996    0.46365996    0.61900000
opls_521-447    C    0.51747013    0.09201993    0.48181006    0.47300000
opls_523-448    C    0.57063983    0.13410018    0.42828996    0.22700000
opls_522-449    C    0.58964006    0.08993983    0.41391988    -0.44700000
opls_521-450    C    0.57202991    0.04736989    0.43421004    0.47300000
opls_700-451    C    0.40085013    0.00312985    0.57141996    0.61900000
opls_523-452    C    0.42718996    0.96070998    0.57316008    0.22700000
opls_145-453    C    0.40365005    0.91679986    0.57093996    -0.11500000
opls_700-454    C    0.35337002    0.91507015    0.56749993    0.61900000
opls_145-455    C    0.32713000    0.95770004    0.56955993    -0.11500000
opls_523-456    C    0.35072017    0.00154015    0.57160018    0.22700000
opls_145-457    C    0.92139985    0.71116018    0.14369005    -0.11500000
opls_145-458    C    0.87246001    0.71375007    0.15454004    -0.11500000
opls_145-459    C    0.84919007    0.75733995    0.15513994    -0.11500000
opls_700-460    C    0.87453006    0.79962017    0.14593996    0.61900000
opls_145-461    C    0.92377003    0.79724999    0.13503001    -0.11500000
opls_145-462    C    0.94691000    0.75279992    0.13302997    -0.11500000
opls_142-463    C    0.36946012    0.17209992    0.07198001    -0.11500000
opls_239-464    N    0.96536992    0.45051015    0.03487995    -0.14000000
opls_750-465    N    0.63647000    0.82988002    0.43816991    -0.78500000
opls_239-466    N    0.03463008    0.54948985    0.03487995    -0.14000000
opls_750-467    N    0.36353000    0.17011998    0.43816991    -0.78500000
opls_239-468    N    0.03463008    0.45051015    0.96512005    -0.14000000
opls_750-469    N    0.36353000    0.82988002    0.56183009    -0.78500000
opls_239-470    N    0.96536992    0.54948985    0.96512005    -0.14000000
opls_750-471    N    0.63647000    0.17011998    0.56183009    -0.78500000
opls_239-472    N    0.03487995    0.96536992    0.45051015    -0.14000000
opls_750-473    N    0.43816991    0.63647000    0.82988002    -0.78500000
opls_239-474    N    0.03487995    0.03463008    0.54948985    -0.14000000
opls_750-475    N    0.43816991    0.36353000    0.17011998    -0.78500000
opls_239-476    N    0.96512005    0.03463008    0.45051015    -0.14000000
opls_750-477    N    0.56183009    0.36353000    0.82988002    -0.78500000
opls_239-478    N    0.96512005    0.96536992    0.54948985    -0.14000000
opls_750-479    N    0.56183009    0.63647000    0.17011998    -0.78500000
opls_239-480    N    0.45051015    0.96512005    0.03463008    -0.14000000
opls_750-481    N    0.82988002    0.56183009    0.36353000    -0.78500000
opls_239-482    N    0.54948985    0.96512005    0.96536992    -0.14000000
opls_750-483    N    0.17011998    0.56183009    0.63647000    -0.78500000
opls_239-484    N    0.45051015    0.03487995    0.96536992    -0.14000000
opls_750-485    N    0.82988002    0.43816991    0.63647000    -0.78500000
opls_239-486    N    0.54948985    0.03487995    0.03463008    -0.14000000
opls_750-487    N    0.17011998    0.43816991    0.36353000    -0.78500000
opls_239-488    N    0.95051015    0.46536992    0.46512005    -0.14000000
opls_750-489    N    0.32988002    0.13647000    0.06183009    -0.78500000
opls_239-490    N    0.04948985    0.53463008    0.46512005    -0.14000000
opls_750-491    N    0.67011998    0.86353000    0.06183009    -0.78500000
opls_239-492    N    0.95051015    0.53463008    0.53487995    -0.14000000
opls_750-493    N    0.32988002    0.86353000    0.93816991    -0.78500000
opls_239-494    N    0.04948985    0.46536992    0.53487995    -0.14000000
opls_750-495    N    0.67011998    0.13647000    0.93816991    -0.78500000
opls_239-496    N    0.46536992    0.53487995    0.04948985    -0.14000000
opls_750-497    N    0.13647000    0.93816991    0.67011998    -0.78500000
opls_239-498    N    0.53463008    0.53487995    0.95051015    -0.14000000
opls_750-499    N    0.86353000    0.93816991    0.32988002    -0.78500000
opls_239-500    N    0.53463008    0.46512005    0.04948985    -0.14000000
opls_750-501    N    0.86353000    0.06183009    0.67011998    -0.78500000
opls_239-502    N    0.46536992    0.46512005    0.95051015    -0.14000000
opls_750-503    N    0.13647000    0.06183009    0.32988002    -0.78500000
opls_239-504    N    0.46512005    0.95051015    0.46536992    -0.14000000
opls_750-505    N    0.06183009    0.32988002    0.13647000    -0.78500000
opls_239-506    N    0.46512005    0.04948985    0.53463008    -0.14000000
opls_750-507    N    0.06183009    0.67011998    0.86353000    -0.78500000
opls_239-508    N    0.53487995    0.95051015    0.53463008    -0.14000000
opls_750-509    N    0.93816991    0.32988002    0.86353000    -0.78500000
opls_239-510    N    0.53487995    0.04948985    0.46536992    -0.14000000
opls_750-511    N    0.93816991    0.67011998    0.13647000    -0.78500000
opls_526-512    H    0.03294991    0.28545005    0.96870010    0.06500000
opls_526-513    H    0.91129983    0.33122990    0.08398996    0.06500000
opls_525-514    H    0.88586004    0.41137989    0.11930000    0.15500000
opls_526-515    H    0.07639009    0.53794015    0.96789017    0.06500000
opls_146-516    H    0.07189995    0.61795013    0.92510016    0.11500000
opls_146-517    H    0.06956998    0.54343012    0.78629983    0.11500000
opls_526-518    H    0.07343005    0.46378992    0.82920005    0.06500000
opls_146-519    H    0.66294015    0.82033000    0.35156995    0.11500000
opls_146-520    H    0.66315986    0.74098993    0.30916983    0.11500000
opls_146-521    H    0.62784013    0.66845992    0.44478000    0.11500000
opls_146-522    H    0.62276014    0.74949990    0.48637989    0.11500000
opls_144-523    H    0.21186994    0.08163988    0.36908998    0.11500000
opls_702-524    H    0.62452000    0.37548000    0.62452000    0.17400000
opls_526-525    H    0.96705009    0.71454995    0.96870010    0.06500000
opls_526-526    H    0.08870017    0.66877010    0.08398996    0.06500000
opls_525-527    H    0.11413996    0.58862011    0.11930000    0.15500000
opls_526-528    H    0.92360991    0.46205985    0.96789017    0.06500000
opls_146-529    H    0.92810005    0.38204987    0.92510016    0.11500000
opls_146-530    H    0.93043002    0.45656988    0.78629983    0.11500000
opls_526-531    H    0.92656995    0.53621008    0.82920005    0.06500000
opls_146-532    H    0.33705985    0.17967000    0.35156995    0.11500000
opls_146-533    H    0.33684014    0.25901007    0.30916983    0.11500000
opls_146-534    H    0.37215987    0.33154008    0.44478000    0.11500000
opls_146-535    H    0.37723986    0.25050010    0.48637989    0.11500000
opls_144-536    H    0.78813006    0.91836012    0.36908998    0.11500000
opls_702-537    H    0.37548000    0.62452000    0.62452000    0.17400000
opls_526-538    H    0.96705009    0.28545005    0.03129990    0.06500000
opls_526-539    H    0.08870017    0.33122990    0.91601004    0.06500000
opls_525-540    H    0.11413996    0.41137989    0.88070000    0.15500000
opls_526-541    H    0.92360991    0.53794015    0.03210983    0.06500000
opls_146-542    H    0.92810005    0.61795013    0.07489984    0.11500000
opls_146-543    H    0.93043002    0.54343012    0.21370017    0.11500000
opls_526-544    H    0.92656995    0.46378992    0.17079995    0.06500000
opls_146-545    H    0.33705985    0.82033000    0.64843005    0.11500000
opls_146-546    H    0.33684014    0.74098993    0.69083017    0.11500000
opls_146-547    H    0.37215987    0.66845992    0.55522000    0.11500000
opls_146-548    H    0.37723986    0.74949990    0.51362011    0.11500000
opls_144-549    H    0.78813006    0.08163988    0.63091002    0.11500000
opls_702-550    H    0.37548000    0.37548000    0.37548000    0.17400000
opls_526-551    H    0.03294991    0.71454995    0.03129990    0.06500000
opls_526-552    H    0.91129983    0.66877010    0.91601004    0.06500000
opls_525-553    H    0.88586004    0.58862011    0.88070000    0.15500000
opls_526-554    H    0.07639009    0.46205985    0.03210983    0.06500000
opls_146-555    H    0.07189995    0.38204987    0.07489984    0.11500000
opls_146-556    H    0.06956998    0.45656988    0.21370017    0.11500000
opls_526-557    H    0.07343005    0.53621008    0.17079995    0.06500000
opls_146-558    H    0.66294015    0.17967000    0.64843005    0.11500000
opls_146-559    H    0.66315986    0.25901007    0.69083017    0.11500000
opls_146-560    H    0.62784013    0.33154008    0.55522000    0.11500000
opls_146-561    H    0.62276014    0.25050010    0.51362011    0.11500000
opls_144-562    H    0.21186994    0.91836012    0.63091002    0.11500000
opls_702-563    H    0.62452000    0.62452000    0.37548000    0.17400000
opls_526-564    H    0.96870010    0.03294991    0.28545005    0.06500000
opls_526-565    H    0.08398996    0.91129983    0.33122990    0.06500000
opls_525-566    H    0.11930000    0.88586004    0.41137989    0.15500000
opls_526-567    H    0.96789017    0.07639009    0.53794015    0.06500000
opls_146-568    H    0.92510016    0.07189995    0.61795013    0.11500000
opls_146-569    H    0.78629983    0.06956998    0.54343012    0.11500000
opls_526-570    H    0.82920005    0.07343005    0.46378992    0.06500000
opls_146-571    H    0.35156995    0.66294015    0.82033000    0.11500000
opls_146-572    H    0.30916983    0.66315986    0.74098993    0.11500000
opls_146-573    H    0.44478000    0.62784013    0.66845992    0.11500000
opls_146-574    H    0.48637989    0.62276014    0.74949990    0.11500000
opls_144-575    H    0.36908998    0.21186994    0.08163988    0.11500000
opls_526-576    H    0.96870010    0.96705009    0.71454995    0.06500000
opls_526-577    H    0.08398996    0.08870017    0.66877010    0.06500000
opls_525-578    H    0.11930000    0.11413996    0.58862011    0.15500000
opls_526-579    H    0.96789017    0.92360991    0.46205985    0.06500000
opls_146-580    H    0.92510016    0.92810005    0.38204987    0.11500000
opls_146-581    H    0.78629983    0.93043002    0.45656988    0.11500000
opls_526-582    H    0.82920005    0.92656995    0.53621008    0.06500000
opls_146-583    H    0.35156995    0.33705985    0.17967000    0.11500000
opls_146-584    H    0.30916983    0.33684014    0.25901007    0.11500000
opls_146-585    H    0.44478000    0.37215987    0.33154008    0.11500000
opls_146-586    H    0.48637989    0.37723986    0.25050010    0.11500000
opls_144-587    H    0.36908998    0.78813006    0.91836012    0.11500000
opls_526-588    H    0.03129990    0.96705009    0.28545005    0.06500000
opls_526-589    H    0.91601004    0.08870017    0.33122990    0.06500000
opls_525-590    H    0.88070000    0.11413996    0.41137989    0.15500000
opls_526-591    H    0.03210983    0.92360991    0.53794015    0.06500000
opls_146-592    H    0.07489984    0.92810005    0.61795013    0.11500000
opls_146-593    H    0.21370017    0.93043002    0.54343012    0.11500000
opls_526-594    H    0.17079995    0.92656995    0.46378992    0.06500000
opls_146-595    H    0.64843005    0.33705985    0.82033000    0.11500000
opls_146-596    H    0.69083017    0.33684014    0.74098993    0.11500000
opls_146-597    H    0.55522000    0.37215987    0.66845992    0.11500000
opls_146-598    H    0.51362011    0.37723986    0.74949990    0.11500000
opls_144-599    H    0.63091002    0.78813006    0.08163988    0.11500000
opls_526-600    H    0.03129990    0.03294991    0.71454995    0.06500000
opls_526-601    H    0.91601004    0.91129983    0.66877010    0.06500000
opls_525-602    H    0.88070000    0.88586004    0.58862011    0.15500000
opls_526-603    H    0.03210983    0.07639009    0.46205985    0.06500000
opls_146-604    H    0.07489984    0.07189995    0.38204987    0.11500000
opls_146-605    H    0.21370017    0.06956998    0.45656988    0.11500000
opls_526-606    H    0.17079995    0.07343005    0.53621008    0.06500000
opls_146-607    H    0.64843005    0.66294015    0.17967000    0.11500000
opls_146-608    H    0.69083017    0.66315986    0.25901007    0.11500000
opls_146-609    H    0.55522000    0.62784013    0.33154008    0.11500000
opls_146-610    H    0.51362011    0.62276014    0.25050010    0.11500000
opls_144-611    H    0.63091002    0.21186994    0.91836012    0.11500000
opls_526-612    H    0.28545005    0.03129990    0.96705009    0.06500000
opls_526-613    H    0.33122990    0.91601004    0.08870017    0.06500000
opls_525-614    H    0.41137989    0.88070000    0.11413996    0.15500000
opls_526-615    H    0.53794015    0.03210983    0.92360991    0.06500000
opls_146-616    H    0.61795013    0.07489984    0.92810005    0.11500000
opls_146-617    H    0.54343012    0.21370017    0.93043002    0.11500000
opls_526-618    H    0.46378992    0.17079995    0.92656995    0.06500000
opls_146-619    H    0.82033000    0.64843005    0.33705985    0.11500000
opls_146-620    H    0.74098993    0.69083017    0.33684014    0.11500000
opls_146-621    H    0.66845992    0.55522000    0.37215987    0.11500000
opls_146-622    H    0.74949990    0.51362011    0.37723986    0.11500000
opls_144-623    H    0.08163988    0.63091002    0.78813006    0.11500000
opls_526-624    H    0.71454995    0.03129990    0.03294991    0.06500000
opls_526-625    H    0.66877010    0.91601004    0.91129983    0.06500000
opls_525-626    H    0.58862011    0.88070000    0.88586004    0.15500000
opls_526-627    H    0.46205985    0.03210983    0.07639009    0.06500000
opls_146-628    H    0.38204987    0.07489984    0.07189995    0.11500000
opls_146-629    H    0.45656988    0.21370017    0.06956998    0.11500000
opls_526-630    H    0.53621008    0.17079995    0.07343005    0.06500000
opls_146-631    H    0.17967000    0.64843005    0.66294015    0.11500000
opls_146-632    H    0.25901007    0.69083017    0.66315986    0.11500000
opls_146-633    H    0.33154008    0.55522000    0.62784013    0.11500000
opls_146-634    H    0.25050010    0.51362011    0.62276014    0.11500000
opls_144-635    H    0.91836012    0.63091002    0.21186994    0.11500000
opls_526-636    H    0.28545005    0.96870010    0.03294991    0.06500000
opls_526-637    H    0.33122990    0.08398996    0.91129983    0.06500000
opls_525-638    H    0.41137989    0.11930000    0.88586004    0.15500000
opls_526-639    H    0.53794015    0.96789017    0.07639009    0.06500000
opls_146-640    H    0.61795013    0.92510016    0.07189995    0.11500000
opls_146-641    H    0.54343012    0.78629983    0.06956998    0.11500000
opls_526-642    H    0.46378992    0.82920005    0.07343005    0.06500000
opls_146-643    H    0.82033000    0.35156995    0.66294015    0.11500000
opls_146-644    H    0.74098993    0.30916983    0.66315986    0.11500000
opls_146-645    H    0.66845992    0.44478000    0.62784013    0.11500000
opls_146-646    H    0.74949990    0.48637989    0.62276014    0.11500000
opls_144-647    H    0.08163988    0.36908998    0.21186994    0.11500000
opls_526-648    H    0.71454995    0.96870010    0.96705009    0.06500000
opls_526-649    H    0.66877010    0.08398996    0.08870017    0.06500000
opls_525-650    H    0.58862011    0.11930000    0.11413996    0.15500000
opls_526-651    H    0.46205985    0.96789017    0.92360991    0.06500000
opls_146-652    H    0.38204987    0.92510016    0.92810005    0.11500000
opls_146-653    H    0.45656988    0.78629983    0.93043002    0.11500000
opls_526-654    H    0.53621008    0.82920005    0.92656995    0.06500000
opls_146-655    H    0.17967000    0.35156995    0.33705985    0.11500000
opls_146-656    H    0.25901007    0.30916983    0.33684014    0.11500000
opls_146-657    H    0.33154008    0.44478000    0.37215987    0.11500000
opls_146-658    H    0.25050010    0.48637989    0.37723986    0.11500000
opls_144-659    H    0.91836012    0.36908998    0.78813006    0.11500000
opls_526-660    H    0.78545005    0.53294991    0.53129990    0.06500000
opls_526-661    H    0.83122990    0.41129983    0.41601004    0.06500000
opls_525-662    H    0.91137989    0.38586004    0.38070000    0.15500000
opls_526-663    H    0.03794015    0.57639009    0.53210983    0.06500000
opls_146-664    H    0.11795013    0.57189995    0.57489984    0.11500000
opls_146-665    H    0.04343012    0.56956998    0.71370017    0.11500000
opls_526-666    H    0.96378992    0.57343005    0.67079995    0.06500000
opls_146-667    H    0.32033000    0.16294015    0.14843005    0.11500000
opls_146-668    H    0.24098993    0.16315986    0.19083017    0.11500000
opls_146-669    H    0.16845992    0.12784013    0.05522000    0.11500000
opls_146-670    H    0.24949990    0.12276014    0.01362011    0.11500000
opls_144-671    H    0.58163988    0.71186994    0.13091002    0.11500000
opls_702-672    H    0.87548000    0.12452000    0.87548000    0.17400000
opls_526-673    H    0.21454995    0.46705009    0.53129990    0.06500000
opls_526-674    H    0.16877010    0.58870017    0.41601004    0.06500000
opls_525-675    H    0.08862011    0.61413996    0.38070000    0.15500000
opls_526-676    H    0.96205985    0.42360991    0.53210983    0.06500000
opls_146-677    H    0.88204987    0.42810005    0.57489984    0.11500000
opls_146-678    H    0.95656988    0.43043002    0.71370017    0.11500000
opls_526-679    H    0.03621008    0.42656995    0.67079995    0.06500000
opls_146-680    H    0.67967000    0.83705985    0.14843005    0.11500000
opls_146-681    H    0.75901007    0.83684014    0.19083017    0.11500000
opls_146-682    H    0.83154008    0.87215987    0.05522000    0.11500000
opls_146-683    H    0.75050010    0.87723986    0.01362011    0.11500000
opls_144-684    H    0.41836012    0.28813006    0.13091002    0.11500000
opls_702-685    H    0.12452000    0.87548000    0.87548000    0.17400000
opls_526-686    H    0.78545005    0.46705009    0.46870010    0.06500000
opls_526-687    H    0.83122990    0.58870017    0.58398996    0.06500000
opls_525-688    H    0.91137989    0.61413996    0.61930000    0.15500000
opls_526-689    H    0.03794015    0.42360991    0.46789017    0.06500000
opls_146-690    H    0.11795013    0.42810005    0.42510016    0.11500000
opls_146-691    H    0.04343012    0.43043002    0.28629983    0.11500000
opls_526-692    H    0.96378992    0.42656995    0.32920005    0.06500000
opls_146-693    H    0.32033000    0.83705985    0.85156995    0.11500000
opls_146-694    H    0.24098993    0.83684014    0.80916983    0.11500000
opls_146-695    H    0.16845992    0.87215987    0.94478000    0.11500000
opls_146-696    H    0.24949990    0.87723986    0.98637989    0.11500000
opls_144-697    H    0.58163988    0.28813006    0.86908998    0.11500000
opls_702-698    H    0.87548000    0.87548000    0.12452000    0.17400000
opls_526-699    H    0.21454995    0.53294991    0.46870010    0.06500000
opls_526-700    H    0.16877010    0.41129983    0.58398996    0.06500000
opls_525-701    H    0.08862011    0.38586004    0.61930000    0.15500000
opls_526-702    H    0.96205985    0.57639009    0.46789017    0.06500000
opls_146-703    H    0.88204987    0.57189995    0.42510016    0.11500000
opls_146-704    H    0.95656988    0.56956998    0.28629983    0.11500000
opls_526-705    H    0.03621008    0.57343005    0.32920005    0.06500000
opls_146-706    H    0.67967000    0.16294015    0.85156995    0.11500000
opls_146-707    H    0.75901007    0.16315986    0.80916983    0.11500000
opls_146-708    H    0.83154008    0.12784013    0.94478000    0.11500000
opls_146-709    H    0.75050010    0.12276014    0.98637989    0.11500000
opls_144-710    H    0.41836012    0.71186994    0.86908998    0.11500000
opls_702-711    H    0.12452000    0.12452000    0.12452000    0.17400000
opls_526-712    H    0.53294991    0.46870010    0.21454995    0.06500000
opls_526-713    H    0.41129983    0.58398996    0.16877010    0.06500000
opls_525-714    H    0.38586004    0.61930000    0.08862011    0.15500000
opls_526-715    H    0.57639009    0.46789017    0.96205985    0.06500000
opls_146-716    H    0.57189995    0.42510016    0.88204987    0.11500000
opls_146-717    H    0.56956998    0.28629983    0.95656988    0.11500000
opls_526-718    H    0.57343005    0.32920005    0.03621008    0.06500000
opls_146-719    H    0.16294015    0.85156995    0.67967000    0.11500000
opls_146-720    H    0.16315986    0.80916983    0.75901007    0.11500000
opls_146-721    H    0.12784013    0.94478000    0.83154008    0.11500000
opls_146-722    H    0.12276014    0.98637989    0.75050010    0.11500000
opls_144-723    H    0.71186994    0.86908998    0.41836012    0.11500000
opls_526-724    H    0.46705009    0.46870010    0.78545005    0.06500000
opls_526-725    H    0.58870017    0.58398996    0.83122990    0.06500000
opls_525-726    H    0.61413996    0.61930000    0.91137989    0.15500000
opls_526-727    H    0.42360991    0.46789017    0.03794015    0.06500000
opls_146-728    H    0.42810005    0.42510016    0.11795013    0.11500000
opls_146-729    H    0.43043002    0.28629983    0.04343012    0.11500000
opls_526-730    H    0.42656995    0.32920005    0.96378992    0.06500000
opls_146-731    H    0.83705985    0.85156995    0.32033000    0.11500000
opls_146-732    H    0.83684014    0.80916983    0.24098993    0.11500000
opls_146-733    H    0.87215987    0.94478000    0.16845992    0.11500000
opls_146-734    H    0.87723986    0.98637989    0.24949990    0.11500000
opls_144-735    H    0.28813006    0.86908998    0.58163988    0.11500000
opls_526-736    H    0.46705009    0.53129990    0.21454995    0.06500000
opls_526-737    H    0.58870017    0.41601004    0.16877010    0.06500000
opls_525-738    H    0.61413996    0.38070000    0.08862011    0.15500000
opls_526-739    H    0.42360991    0.53210983    0.96205985    0.06500000
opls_146-740    H    0.42810005    0.57489984    0.88204987    0.11500000
opls_146-741    H    0.43043002    0.71370017    0.95656988    0.11500000
opls_526-742    H    0.42656995    0.67079995    0.03621008    0.06500000
opls_146-743    H    0.83705985    0.14843005    0.67967000    0.11500000
opls_146-744    H    0.83684014    0.19083017    0.75901007    0.11500000
opls_146-745    H    0.87215987    0.05522000    0.83154008    0.11500000
opls_146-746    H    0.87723986    0.01362011    0.75050010    0.11500000
opls_144-747    H    0.28813006    0.13091002    0.41836012    0.11500000
opls_526-748    H    0.53294991    0.53129990    0.78545005    0.06500000
opls_526-749    H    0.41129983    0.41601004    0.83122990    0.06500000
opls_525-750    H    0.38586004    0.38070000    0.91137989    0.15500000
opls_526-751    H    0.57639009    0.53210983    0.03794015    0.06500000
opls_146-752    H    0.57189995    0.57489984    0.11795013    0.11500000
opls_146-753    H    0.56956998    0.71370017    0.04343012    0.11500000
opls_526-754    H    0.57343005    0.67079995    0.96378992    0.06500000
opls_146-755    H    0.16294015    0.14843005    0.32033000    0.11500000
opls_146-756    H    0.16315986    0.19083017    0.24098993    0.11500000
opls_146-757    H    0.12784013    0.05522000    0.16845992    0.11500000
opls_146-758    H    0.12276014    0.01362011    0.24949990    0.11500000
opls_144-759    H    0.71186994    0.13091002    0.58163988    0.11500000
opls_526-760    H    0.53129990    0.78545005    0.53294991    0.06500000
opls_526-761    H    0.41601004    0.83122990    0.41129983    0.06500000
opls_525-762    H    0.38070000    0.91137989    0.38586004    0.15500000
opls_526-763    H    0.53210983    0.03794015    0.57639009    0.06500000
opls_146-764    H    0.57489984    0.11795013    0.57189995    0.11500000
opls_146-765    H    0.71370017    0.04343012    0.56956998    0.11500000
opls_526-766    H    0.67079995    0.96378992    0.57343005    0.06500000
opls_146-767    H    0.14843005    0.32033000    0.16294015    0.11500000
opls_146-768    H    0.19083017    0.24098993    0.16315986    0.11500000
opls_146-769    H    0.05522000    0.16845992    0.12784013    0.11500000
opls_146-770    H    0.01362011    0.24949990    0.12276014    0.11500000
opls_144-771    H    0.13091002    0.58163988    0.71186994    0.11500000
opls_526-772    H    0.53129990    0.21454995    0.46705009    0.06500000
opls_526-773    H    0.41601004    0.16877010    0.58870017    0.06500000
opls_525-774    H    0.38070000    0.08862011    0.61413996    0.15500000
opls_526-775    H    0.53210983    0.96205985    0.42360991    0.06500000
opls_146-776    H    0.57489984    0.88204987    0.42810005    0.11500000
opls_146-777    H    0.71370017    0.95656988    0.43043002    0.11500000
opls_526-778    H    0.67079995    0.03621008    0.42656995    0.06500000
opls_146-779    H    0.14843005    0.67967000    0.83705985    0.11500000
opls_146-780    H    0.19083017    0.75901007    0.83684014    0.11500000
opls_146-781    H    0.05522000    0.83154008    0.87215987    0.11500000
opls_146-782    H    0.01362011    0.75050010    0.87723986    0.11500000
opls_144-783    H    0.13091002    0.41836012    0.28813006    0.11500000
opls_526-784    H    0.46870010    0.78545005    0.46705009    0.06500000
opls_526-785    H    0.58398996    0.83122990    0.58870017    0.06500000
opls_525-786    H    0.61930000    0.91137989    0.61413996    0.15500000
opls_526-787    H    0.46789017    0.03794015    0.42360991    0.06500000
opls_146-788    H    0.42510016    0.11795013    0.42810005    0.11500000
opls_146-789    H    0.28629983    0.04343012    0.43043002    0.11500000
opls_526-790    H    0.32920005    0.96378992    0.42656995    0.06500000
opls_146-791    H    0.85156995    0.32033000    0.83705985    0.11500000
opls_146-792    H    0.80916983    0.24098993    0.83684014    0.11500000
opls_146-793    H    0.94478000    0.16845992    0.87215987    0.11500000
opls_146-794    H    0.98637989    0.24949990    0.87723986    0.11500000
opls_144-795    H    0.86908998    0.58163988    0.28813006    0.11500000
opls_526-796    H    0.46870010    0.21454995    0.53294991    0.06500000
opls_526-797    H    0.58398996    0.16877010    0.41129983    0.06500000
opls_525-798    H    0.61930000    0.08862011    0.38586004    0.15500000
opls_526-799    H    0.46789017    0.96205985    0.57639009    0.06500000
opls_146-800    H    0.42510016    0.88204987    0.57189995    0.11500000
opls_146-801    H    0.28629983    0.95656988    0.56956998    0.11500000
opls_526-802    H    0.32920005    0.03621008    0.57343005    0.06500000
opls_146-803    H    0.85156995    0.67967000    0.16294015    0.11500000
opls_146-804    H    0.80916983    0.75901007    0.16315986    0.11500000
opls_146-805    H    0.94478000    0.83154008    0.12784013    0.11500000
opls_146-806    H    0.98637989    0.75050010    0.12276014    0.11500000
opls_144-807    H    0.86908998    0.41836012    0.71186994    0.11500000
MOF2_F_-808    F    0.97372982    0.78886998    0.54762012    0.00000000
MOF2_F_-809    F    0.94902996    0.73477009    0.60567989    0.00000000
MOF2_F_-810    F    0.02627018    0.21113002    0.54762012    0.00000000
MOF2_F_-811    F    0.05097004    0.26522991    0.60567989    0.00000000
MOF2_F_-812    F    0.02627018    0.78886998    0.45237988    0.00000000
MOF2_F_-813    F    0.05097004    0.73477009    0.39432011    0.00000000
MOF2_F_-814    F    0.97372982    0.21113002    0.45237988    0.00000000
MOF2_F_-815    F    0.94902996    0.26522991    0.39432011    0.00000000
MOF2_F_-816    F    0.54762012    0.97372982    0.78886998    0.00000000
MOF2_F_-817    F    0.60567989    0.94902996    0.73477009    0.00000000
MOF2_F_-818    F    0.54762012    0.02627018    0.21113002    0.00000000
MOF2_F_-819    F    0.60567989    0.05097004    0.26522991    0.00000000
MOF2_F_-820    F    0.45237988    0.02627018    0.78886998    0.00000000
MOF2_F_-821    F    0.39432011    0.05097004    0.73477009    0.00000000
MOF2_F_-822    F    0.45237988    0.97372982    0.21113002    0.00000000
MOF2_F_-823    F    0.39432011    0.94902996    0.26522991    0.00000000
MOF2_F_-824    F    0.78886998    0.45237988    0.02627018    0.00000000
MOF2_F_-825    F    0.73477009    0.39432011    0.05097004    0.00000000
MOF2_F_-826    F    0.21113002    0.45237988    0.97372982    0.00000000
MOF2_F_-827    F    0.26522991    0.39432011    0.94902996    0.00000000
MOF2_F_-828    F    0.78886998    0.54762012    0.97372982    0.00000000
MOF2_F_-829    F    0.73477009    0.60567989    0.94902996    0.00000000
MOF2_F_-830    F    0.21113002    0.54762012    0.02627018    0.00000000
MOF2_F_-831    F    0.26522991    0.60567989    0.05097004    0.00000000
MOF2_F_-832    F    0.28886998    0.47372982    0.95237988    0.00000000
MOF2_F_-833    F    0.23477009    0.44902996    0.89432011    0.00000000
MOF2_F_-834    F    0.71113002    0.52627018    0.95237988    0.00000000
MOF2_F_-835    F    0.76522991    0.55097004    0.89432011    0.00000000
MOF2_F_-836    F    0.28886998    0.52627018    0.04762012    0.00000000
MOF2_F_-837    F    0.23477009    0.55097004    0.10567989    0.00000000
MOF2_F_-838    F    0.71113002    0.47372982    0.04762012    0.00000000
MOF2_F_-839    F    0.76522991    0.44902996    0.10567989    0.00000000
MOF2_F_-840    F    0.47372982    0.04762012    0.71113002    0.00000000
MOF2_F_-841    F    0.44902996    0.10567989    0.76522991    0.00000000
MOF2_F_-842    F    0.52627018    0.04762012    0.28886998    0.00000000
MOF2_F_-843    F    0.55097004    0.10567989    0.23477009    0.00000000
MOF2_F_-844    F    0.52627018    0.95237988    0.71113002    0.00000000
MOF2_F_-845    F    0.55097004    0.89432011    0.76522991    0.00000000
MOF2_F_-846    F    0.47372982    0.95237988    0.28886998    0.00000000
MOF2_F_-847    F    0.44902996    0.89432011    0.23477009    0.00000000
MOF2_F_-848    F    0.95237988    0.28886998    0.47372982    0.00000000
MOF2_F_-849    F    0.89432011    0.23477009    0.44902996    0.00000000
MOF2_F_-850    F    0.95237988    0.71113002    0.52627018    0.00000000
MOF2_F_-851    F    0.89432011    0.76522991    0.55097004    0.00000000
MOF2_F_-852    F    0.04762012    0.28886998    0.52627018    0.00000000
MOF2_F_-853    F    0.10567989    0.23477009    0.55097004    0.00000000
MOF2_F_-854    F    0.04762012    0.71113002    0.47372982    0.00000000
MOF2_F_-855    F    0.10567989    0.76522991    0.44902996    0.00000000
MOF2_O_3-856    O    0.77433009    0.96478007    0.61456000    0.00000000
MOF2_O_3-857    O    0.00000000    0.50000000    0.75000000    0.00000000
MOF2_O_3-858    O    0.34324990    0.15675010    0.75000000    0.00000000
MOF2_O_3-859    O    0.22566991    0.03521993    0.61456000    0.00000000
MOF2_O_3-860    O    0.65675010    0.84324990    0.75000000    0.00000000
MOF2_O_3-861    O    0.22566991    0.96478007    0.38544000    0.00000000
MOF2_O_3-862    O    0.00000000    0.50000000    0.25000000    0.00000000
MOF2_O_3-863    O    0.65675010    0.15675010    0.25000000    0.00000000
MOF2_O_3-864    O    0.77433009    0.03521993    0.38544000    0.00000000
MOF2_O_3-865    O    0.34324990    0.84324990    0.25000000    0.00000000
MOF2_O_3-866    O    0.61456000    0.77433009    0.96478007    0.00000000
MOF2_O_3-867    O    0.75000000    0.00000000    0.50000000    0.00000000
MOF2_O_3-868    O    0.75000000    0.34324990    0.15675010    0.00000000
MOF2_O_3-869    O    0.61456000    0.22566991    0.03521993    0.00000000
MOF2_O_3-870    O    0.75000000    0.65675010    0.84324990    0.00000000
MOF2_O_3-871    O    0.38544000    0.22566991    0.96478007    0.00000000
MOF2_O_3-872    O    0.25000000    0.00000000    0.50000000    0.00000000
MOF2_O_3-873    O    0.25000000    0.65675010    0.15675010    0.00000000
MOF2_O_3-874    O    0.38544000    0.77433009    0.03521993    0.00000000
MOF2_O_3-875    O    0.25000000    0.34324990    0.84324990    0.00000000
MOF2_O_3-876    O    0.96478007    0.38544000    0.22566991    0.00000000
MOF2_O_3-877    O    0.50000000    0.25000000    0.00000000    0.00000000
MOF2_O_3-878    O    0.15675010    0.25000000    0.65675010    0.00000000
MOF2_O_3-879    O    0.03521993    0.38544000    0.77433009    0.00000000
MOF2_O_3-880    O    0.84324990    0.25000000    0.34324990    0.00000000
MOF2_O_3-881    O    0.96478007    0.61456000    0.77433009    0.00000000
MOF2_O_3-882    O    0.50000000    0.75000000    0.00000000    0.00000000
MOF2_O_3-883    O    0.15675010    0.75000000    0.34324990    0.00000000
MOF2_O_3-884    O    0.03521993    0.61456000    0.22566991    0.00000000
MOF2_O_3-885    O    0.84324990    0.75000000    0.65675010    0.00000000
MOF2_O_3-886    O    0.46478007    0.27433009    0.88544000    0.00000000
MOF2_O_3-887    O    0.53521993    0.72566991    0.88544000    0.00000000
MOF2_O_3-888    O    0.46478007    0.72566991    0.11456000    0.00000000
MOF2_O_3-889    O    0.53521993    0.27433009    0.11456000    0.00000000
MOF2_O_3-890    O    0.27433009    0.11456000    0.53521993    0.00000000
MOF2_O_3-891    O    0.72566991    0.11456000    0.46478007    0.00000000
MOF2_O_3-892    O    0.72566991    0.88544000    0.53521993    0.00000000
MOF2_O_3-893    O    0.27433009    0.88544000    0.46478007    0.00000000
MOF2_O_3-894    O    0.88544000    0.46478007    0.27433009    0.00000000
MOF2_O_3-895    O    0.88544000    0.53521993    0.72566991    0.00000000
MOF2_O_3-896    O    0.11456000    0.46478007    0.72566991    0.00000000
MOF2_O_3-897    O    0.11456000    0.53521993    0.27433009    0.00000000
Cu2+-898    Cu    0.50000000    0.00000000    0.00000000    2.00000000
Cu2+-899    Cu    0.00000000    0.50000000    0.00000000    2.00000000
Cu2+-900    Cu    0.00000000    0.00000000    0.50000000    2.00000000
Cu2+-901    Cu    0.50000000    0.00000000    0.50000000    2.00000000
Cu2+-902    Cu    0.00000000    0.50000000    0.50000000    2.00000000
Cu2+-903    Cu    0.50000000    0.50000000    0.00000000    2.00000000
MOF2_B_3-904    B    0.25000000    0.44234986    0.94234986    0.00000000
MOF2_B_3-905    B    0.75000000    0.55765014    0.94234986    0.00000000
MOF2_B_3-906    B    0.75000000    0.44234986    0.05765014    0.00000000
MOF2_B_3-907    B    0.25000000    0.55765014    0.05765014    0.00000000
MOF2_B_3-908    B    0.94234986    0.25000000    0.44234986    0.00000000
MOF2_B_3-909    B    0.94234986    0.75000000    0.55765014    0.00000000
MOF2_B_3-910    B    0.05765014    0.75000000    0.44234986    0.00000000
MOF2_B_3-911    B    0.05765014    0.25000000    0.55765014    0.00000000
MOF2_B_3-912    B    0.44234986    0.05765014    0.75000000    0.00000000
MOF2_B_3-913    B    0.55765014    0.05765014    0.25000000    0.00000000
MOF2_B_3-914    B    0.44234986    0.94234986    0.25000000    0.00000000
MOF2_B_3-915    B    0.55765014    0.94234986    0.75000000    0.00000000
