#======================================================================
# Crystal Data Generated By AuToFF
#----------------------------------------------------------------------

data_AuToFF_phase_1

_cell_length_a                         37.0980
_cell_length_b                         36.8016
_cell_length_c                         8.0680
_cell_angle_alpha                      89.93
_cell_angle_beta                       90.10
_cell_angle_gamma                      89.90
_symmetry_space_group_name_H-M_alt     'P 1'
_symmetry_space_group_IT_number        1

loop_
_space_group_symop_operation_xyz
   'x, y, z'

loop_
   _atom_site_label
   _atom_site_type_symbol
   _atom_site_fract_x
   _atom_site_fract_y
   _atom_site_fract_z
   _atom_site_charge
opls_507-0    C    0.27292004    0.88132990    0.98764003    0.21540000
opls_716-1    C    0.24300985    0.90706990    0.97153067    -0.15400000
opls_716-2    C    0.21222007    0.88827008    0.00258057    -0.15540000
opls_507-3    C    0.22247007    0.85009994    0.02067060    0.21540000
opls_700-4    C    0.19772004    0.82071002    0.03602017    -0.12320000
opls_543-5    C    0.20852008    0.78344008    0.02872962    0.20410000
opls_716-6    C    0.18527987    0.75224986    0.02644032    -0.18260000
opls_716-7    C    0.20647988    0.72154001    0.02859948    -0.16830000
opls_543-8    C    0.24350992    0.73262006    0.02188032    0.18190000
opls_716-9    C    0.37136990    0.71337983    0.02403947    -0.15860000
opls_716-10    C    0.34065987    0.69423993    0.99625061    -0.15450000
opls_507-11    C    0.31064996    0.72005003    0.00664974    0.21390000
opls_700-12    C    0.38580996    0.78096985    0.04128047    -0.05770000
opls_543-13    C    0.37512988    0.81816007    0.02985010    0.18320000
opls_716-14    C    0.39831989    0.84931984    0.02692000    -0.17060000
opls_716-15    C    0.37703994    0.87994004    0.02044006    -0.16790000
opls_543-16    C    0.34005008    0.86872996    0.00965049    0.19180000
opls_700-17    C    0.30974003    0.89225982    0.98999998    -0.12360000
opls_700-18    C    0.27388006    0.70899991    0.01212943    -0.05450000
opls_507-19    C    0.36099010    0.75163983    0.03283969    0.20570000
opls_700-20    C    0.15821013    0.82699002    0.05576985    0.07010000
opls_145-21    C    0.13842006    0.80430992    0.16436952    -0.11120000
opls_145-22    C    0.13816003    0.85286978    0.96393025    -0.15480000
opls_145-23    C    0.10085989    0.80429983    0.16663031    -0.17160000
opls_145-24    C    0.10066005    0.85528988    0.97631006    -0.16790000
opls_145-25    C    0.08135997    0.82950997    0.06978946    0.21700000
opls_700-26    C    0.42523989    0.77380008    0.05602022    0.07550000
opls_145-27    C    0.44320004    0.74691994    0.96163972    -0.11730000
opls_145-28    C    0.44675004    0.79541987    0.16198974    -0.13060000
opls_145-29    C    0.48045003    0.74187995    0.97216032    -0.16780000
opls_145-30    C    0.48424012    0.79284991    0.16183977    -0.16840000
opls_145-31    C    0.50161995    0.76613983    0.06547984    0.21470000
opls_700-32    C    0.31783987    0.93189995    0.97848036    0.06980000
opls_145-33    C    0.34577000    0.94530985    0.87604084    -0.12230000
opls_145-34    C    0.29831010    0.95761008    0.07270965    -0.12630000
opls_145-35    C    0.35478992    0.98207980    0.87273022    -0.16840000
opls_145-36    C    0.30508013    0.99478990    0.05942008    -0.17380000
opls_145-37    C    0.33378005    0.00747984    0.96074978    0.22190000
opls_700-38    C    0.26717992    0.66906988    0.01500995    0.07570000
opls_145-39    C    0.28890991    0.64657007    0.11669960    -0.11930000
opls_145-40    C    0.24077995    0.65182992    0.91599012    -0.10320000
opls_145-41    C    0.28702998    0.60882987    0.10797994    -0.17330000
opls_145-42    C    0.23648004    0.61412974    0.91757045    -0.16790000
opls_145-43    C    0.26084993    0.59210999    0.00686045    0.21630000
opls_142-44    C    0.55735992    0.79129001    0.00649977    0.03080000
opls_142-45    C    0.28474005    0.53407980    0.95810971    0.03080000
opls_700-46    C    0.28266993    0.49422976    0.96377036    0.07430000
opls_145-47    C    0.30853988    0.47258986    0.88225058    -0.11930000
opls_145-48    C    0.25497002    0.47674008    0.05267985    -0.13180000
opls_145-49    C    0.30639999    0.43474994    0.88623051    -0.11640000
opls_145-50    C    0.25364998    0.43899996    0.06166971    -0.11930000
opls_700-51    C    0.27923992    0.41710995    0.97850019    0.07580000
opls_700-52    C    0.27495986    0.37697987    0.98264002    0.03430000
opls_145-53    C    0.23959998    0.36383979    0.97044985    -0.14050000
opls_700-54    C    0.30369001    0.35138992    0.99959965    0.03220000
opls_700-55    C    0.23088001    0.32673974    0.96932070    0.03250000
opls_700-56    C    0.29610987    0.31317982    0.99332051    -0.02790000
opls_145-57    C    0.34036002    0.36256998    0.02256947    -0.11560000
opls_700-58    C    0.25960985    0.30087984    0.97510033    0.03360000
opls_700-59    C    0.19186998    0.31784001    0.96551057    0.07570000
opls_700-60    C    0.32513990    0.28716999    0.00524047    -0.02580000
opls_145-61    C    0.36790005    0.33788010    0.03276037    -0.12750000
opls_145-62    C    0.25325989    0.26251979    0.96653066    -0.11730000
opls_145-63    C    0.16833995    0.34060994    0.87432046    -0.11940000
opls_145-64    C    0.17640007    0.28952000    0.06001998    -0.11820000
opls_700-65    C    0.31774991    0.24900994    0.99238967    0.03430000
opls_700-66    C    0.36147998    0.29942986    0.02941009    0.03260000
opls_145-67    C    0.28077004    0.23788977    0.98064076    -0.12740000
opls_145-68    C    0.13116983    0.33593996    0.88099004    -0.13180000
opls_145-69    C    0.13924996    0.28377006    0.06072028    -0.11910000
opls_700-70    C    0.34691996    0.22348984    0.99125060    0.03340000
opls_700-71    C    0.38989987    0.27339008    0.04792030    0.03340000
opls_700-72    C    0.11593984    0.30729983    0.97345060    0.07700000
opls_145-73    C    0.38181009    0.23646999    0.02417953    -0.12340000
opls_700-74    C    0.34206989    0.18407977    0.95851006    0.07540000
opls_700-75    C    0.42797996    0.28332999    0.08250020    0.07500000
opls_145-76    C    0.31507985    0.17096980    0.84994013    -0.11930000
opls_145-77    C    0.36466004    0.15794006    0.03514015    -0.12630000
opls_145-78    C    0.43782990    0.31239992    0.18775951    -0.11120000
opls_145-79    C    0.45618006    0.26324989    0.00807017    -0.11930000
opls_145-80    C    0.30848000    0.13388997    0.83350975    -0.11910000
opls_145-81    C    0.35919009    0.12080989    0.01263018    -0.11890000
opls_145-82    C    0.47376986    0.32272995    0.20676055    -0.11920000
opls_145-83    C    0.49213000    0.27264006    0.03217038    -0.11520000
opls_700-84    C    0.33006985    0.10803995    0.91639047    0.06220000
opls_700-85    C    0.50159008    0.30319003    0.12812005    0.06150000
opls_700-86    C    0.82118991    0.60048992    0.88322976    0.06270000
opls_145-87    C    0.79725999    0.62471986    0.80371047    -0.11940000
opls_145-88    C    0.84961985    0.61527978    0.97776023    -0.11910000
opls_145-89    C    0.80131003    0.66219982    0.81957070    -0.11930000
opls_145-90    C    0.85271993    0.65270974    0.99893034    -0.11120000
opls_700-91    C    0.82824008    0.67714987    0.92306996    0.07500000
opls_700-92    C    0.83175987    0.71690982    0.95090965    0.03320000
opls_145-93    C    0.86665004    0.73135978    0.96353982    -0.13870000
opls_700-94    C    0.80177006    0.74107988    0.96728053    0.03320000
opls_700-95    C    0.87402997    0.76857977    0.98335023    0.03460000
opls_700-96    C    0.80793994    0.77938973    0.98406045    -0.02550000
opls_145-97    C    0.76523003    0.72830997    0.96861048    -0.12750000
opls_700-98    C    0.84416006    0.79321998    0.98889065    0.03450000
opls_700-99    C    0.91274994    0.77902980    0.99318045    0.07570000
opls_700-100    C    0.77767004    0.80396975    0.99438025    -0.02530000
opls_145-101    C    0.73653005    0.75168991    0.97306017    -0.11730000
opls_145-102    C    0.84887992    0.83181008    0.00104983    -0.11190000
opls_145-103    C    0.93821987    0.75816988    0.90374047    -0.11930000
opls_145-104    C    0.92641007    0.80762989    0.09218045    -0.16320000
opls_700-105    C    0.78371994    0.84234992    0.00926006    0.03380000
opls_700-106    C    0.74146992    0.79015992    0.98835024    0.03340000
opls_145-107    C    0.82023005    0.85498005    0.01793014    -0.11560000
opls_145-108    C    0.97498996    0.76510997    0.91476057    -0.11910000
opls_145-109    C    0.96314990    0.81591005    0.09611947    -0.11820000
opls_700-110    C    0.75372996    0.86673986    0.01271942    0.03250000
opls_700-111    C    0.71170005    0.81467995    0.99840976    0.03320000
opls_700-112    C    0.98829999    0.79448982    0.00881014    0.06250000
opls_145-113    C    0.71885994    0.85203995    0.00944970    -0.14420000
opls_700-114    C    0.75646002    0.90699003    0.01603003    0.07580000
opls_700-115    C    0.67286990    0.80459973    0.99391050    0.07540000
opls_145-116    C    0.78231994    0.92646980    0.92307988    -0.11640000
opls_145-117    C    0.73087009    0.92728000    0.10708009    -0.13060000
opls_145-118    C    0.65748992    0.77567985    0.08483040    -0.11730000
opls_145-119    C    0.64925996    0.82733999    0.90299059    -0.11910000
opls_145-120    C    0.78368000    0.96428972    0.92821004    -0.11910000
opls_145-121    C    0.73120002    0.96514002    0.10631038    -0.11910000
opls_145-122    C    0.62028999    0.76979987    0.08507954    -0.12310000
opls_145-123    C    0.61213998    0.82237984    0.90841078    -0.12750000
opls_700-124    C    0.75810007    0.98431983    0.01959970    0.08470000
opls_700-125    C    0.59685000    0.79356991    0.99971988    0.07530000
opls_142-126    C    0.53973001    0.31375005    0.14348945    0.03080000
opls_142-127    C    0.02754007    0.79978000    0.01553053    0.03210000
opls_507-128    C    0.78567000    0.36892997    0.94428965    0.20920000
opls_716-129    C    0.75339988    0.39135983    0.92373060    -0.15790000
opls_716-130    C    0.72465004    0.36982999    0.95895007    -0.15540000
opls_507-131    C    0.73865007    0.33306983    0.98450046    0.21540000
opls_700-132    C    0.71709013    0.30146996    0.00829948    -0.12340000
opls_543-133    C    0.73119998    0.26533987    0.00015989    0.19740000
opls_716-134    C    0.71056999    0.23232000    0.99934060    -0.17380000
opls_716-135    C    0.73418005    0.20347975    0.99678978    -0.17090000
opls_543-136    C    0.77012000    0.21760980    0.98642039    0.18310000
opls_716-137    C    0.89864995    0.21068001    0.00308999    -0.15580000
opls_716-138    C    0.87033994    0.18834977    0.97097043    -0.15400000
opls_507-139    C    0.83784995    0.21095999    0.97405051    0.20950000
opls_700-140    C    0.90608996    0.27948996    0.01447946    -0.05780000
opls_543-141    C    0.89231995    0.31555983    0.99885969    0.18360000
opls_716-142    C    0.91288993    0.34853981    0.99412988    -0.16950000
opls_716-143    C    0.88923995    0.37725993    0.98193972    -0.17060000
opls_543-144    C    0.85338002    0.36293990    0.97017965    0.18310000
opls_700-145    C    0.82117983    0.38351975    0.94678965    -0.09820000
opls_700-146    C    0.80228997    0.19655994    0.97446077    -0.05780000
opls_507-147    C    0.88435991    0.24774008    0.00649977    0.20880000
opls_700-148    C    0.67753998    0.30377004    0.03943986    0.06950000
opls_145-149    C    0.66188004    0.27919993    0.15388982    -0.12310000
opls_145-150    C    0.65361000    0.32726988    0.95448055    -0.12240000
opls_145-151    C    0.62473986    0.27549991    0.17049993    -0.17010000
opls_145-152    C    0.61640986    0.32604985    0.98089980    -0.18010000
opls_145-153    C    0.60134987    0.29917993    0.08435941    0.21690000
opls_700-154    C    0.94594998    0.27599995    0.03014013    0.07690000
opls_145-155    C    0.96602005    0.25076982    0.93545968    -0.12630000
opls_145-156    C    0.96547006    0.29956002    0.13556057    -0.11820000
opls_145-157    C    0.00352988    0.24895988    0.94592079    -0.17340000
opls_145-158    C    0.00303989    0.30022988    0.13534986    -0.17160000
opls_145-159    C    0.02249002    0.27497999    0.03927997    0.21850000
opls_700-160    C    0.82538003    0.42373998    0.93437019    0.07580000
opls_145-161    C    0.85207995    0.43986002    0.83327053    -0.08050000
opls_145-162    C    0.80319992    0.44734987    0.02774052    -0.12630000
opls_145-163    C    0.85748985    0.47735991    0.83070979    -0.17060000
opls_145-164    C    0.80645001    0.48501985    0.01567059    -0.17380000
opls_145-165    C    0.83402988    0.50051987    0.91856078    0.22190000
opls_700-166    C    0.79798001    0.15630001    0.97317048    0.07580000
opls_145-167    C    0.81992987    0.13391987    0.07443003    -0.11820000
opls_145-168    C    0.77178995    0.13894991    0.87346027    -0.12240000
opls_145-169    C    0.81723009    0.09617008    0.07026046    -0.16920000
opls_145-170    C    0.76665000    0.10140995    0.87969975    -0.17380000
opls_145-171    C    0.78973009    0.07952978    0.97675007    0.21660000
opls_142-172    C    0.07658008    0.30386983    0.97977065    0.03110000
opls_142-173    C    0.75940987    0.02423007    0.02504964    0.03080000
opls_142-174    C    0.32147002    0.06912982    0.90504067    0.03080000
opls_142-175    C    0.81584998    0.56100997    0.86979021    0.03080000
opls_507-176    C    0.27291991    0.88132990    0.48764003    0.21540000
opls_716-177    C    0.24300998    0.90706990    0.47153067    -0.15400000
opls_716-178    C    0.21221994    0.88826981    0.50258057    -0.15540000
opls_507-179    C    0.22246994    0.85009994    0.52067060    0.21540000
opls_700-180    C    0.19771990    0.82071002    0.53602017    -0.12320000
opls_543-181    C    0.20851994    0.78343981    0.52872962    0.20410000
opls_716-182    C    0.18528000    0.75224986    0.52644032    -0.18260000
opls_716-183    C    0.20648002    0.72154001    0.52860072    -0.16840000
opls_543-184    C    0.24351006    0.73261979    0.52188032    0.18180000
opls_716-185    C    0.37137003    0.71337983    0.52404071    -0.15860000
opls_716-186    C    0.34066000    0.69423993    0.49625061    -0.15450000
opls_507-187    C    0.31065009    0.72005003    0.50664974    0.21390000
opls_700-188    C    0.38581010    0.78096985    0.54128047    -0.05770000
opls_543-189    C    0.37513001    0.81815980    0.52985010    0.18320000
opls_716-190    C    0.39832003    0.84931984    0.52692000    -0.17060000
opls_716-191    C    0.37704008    0.87993977    0.52044006    -0.16790000
opls_543-192    C    0.34004994    0.86872996    0.50965049    0.19180000
opls_700-193    C    0.30973990    0.89225982    0.48999998    -0.12360000
opls_700-194    C    0.27387993    0.70899991    0.51213067    -0.05450000
opls_507-195    C    0.36098997    0.75163983    0.53283969    0.20570000
opls_700-196    C    0.15821000    0.82699002    0.55576985    0.07010000
opls_145-197    C    0.13841993    0.80430992    0.66437076    -0.13060000
opls_145-198    C    0.13815990    0.85286978    0.46393025    -0.15480000
opls_145-199    C    0.10086002    0.80429983    0.66663031    -0.17160000
opls_145-200    C    0.10065991    0.85528988    0.47631006    -0.16790000
opls_145-201    C    0.08136010    0.82950997    0.56979070    0.21700000
opls_700-202    C    0.42524003    0.77379981    0.55602022    0.07550000
opls_145-203    C    0.44319990    0.74691994    0.46163972    -0.11730000
opls_145-204    C    0.44674991    0.79541987    0.66198974    -0.13060000
opls_145-205    C    0.48044990    0.74187995    0.47216032    -0.16780000
opls_145-206    C    0.48423998    0.79284991    0.66183977    -0.16840000
opls_145-207    C    0.50162008    0.76613983    0.56547984    0.21470000
opls_700-208    C    0.31784000    0.93189995    0.47848036    0.06990000
opls_145-209    C    0.34576986    0.94530985    0.37603960    -0.12240000
opls_145-210    C    0.29830997    0.95760980    0.57270965    -0.12630000
opls_145-211    C    0.35479005    0.98207980    0.37273022    -0.16840000
opls_145-212    C    0.30508000    0.99478990    0.55942008    -0.17380000
opls_145-213    C    0.33377992    0.00747984    0.46074978    0.22190000
opls_700-214    C    0.26718005    0.66906988    0.51500995    0.07570000
opls_145-215    C    0.28891004    0.64656980    0.61669960    -0.11930000
opls_145-216    C    0.24078009    0.65182992    0.41599012    -0.10320000
opls_145-217    C    0.28702985    0.60882987    0.60797994    -0.17340000
opls_145-218    C    0.23647991    0.61413002    0.41757045    -0.16790000
opls_145-219    C    0.26085006    0.59210999    0.50686045    0.21630000
opls_142-220    C    0.55736005    0.79129001    0.50649977    0.03090000
opls_142-221    C    0.28473992    0.53407980    0.45810971    0.03080000
opls_700-222    C    0.28267006    0.49423003    0.46377036    0.07430000
opls_145-223    C    0.30854002    0.47258986    0.38225058    -0.11930000
opls_145-224    C    0.25496988    0.47673980    0.55267985    -0.13180000
opls_145-225    C    0.30639986    0.43474994    0.38623051    -0.11640000
opls_145-226    C    0.25364984    0.43899996    0.56166971    -0.11930000
opls_700-227    C    0.27924005    0.41710995    0.47850019    0.07580000
opls_700-228    C    0.27495999    0.37697987    0.48264002    0.03430000
opls_145-229    C    0.23959985    0.36384007    0.47044985    -0.14050000
opls_700-230    C    0.30368987    0.35138992    0.49959965    0.03220000
opls_700-231    C    0.23087988    0.32674002    0.46932070    0.03250000
opls_700-232    C    0.29611001    0.31317982    0.49332051    -0.02790000
opls_145-233    C    0.34035989    0.36256998    0.52257071    -0.11560000
opls_700-234    C    0.25960999    0.30087984    0.47510033    0.03360000
opls_700-235    C    0.19186985    0.31784001    0.46551057    0.07570000
opls_700-236    C    0.32514003    0.28716999    0.50524047    -0.02580000
opls_145-237    C    0.36789991    0.33787983    0.53276037    -0.12750000
opls_145-238    C    0.25326002    0.26252006    0.46653066    -0.11730000
opls_145-239    C    0.16834008    0.34060994    0.37432046    -0.11940000
opls_145-240    C    0.17639994    0.28952000    0.56001998    -0.11820000
opls_700-241    C    0.31775004    0.24900994    0.49238967    0.03430000
opls_700-242    C    0.36147985    0.29942986    0.52941009    0.03260000
opls_145-243    C    0.28076990    0.23789004    0.48063952    -0.12750000
opls_145-244    C    0.13116996    0.33593996    0.38099004    -0.13180000
opls_145-245    C    0.13925010    0.28377006    0.56072028    -0.11910000
opls_700-246    C    0.34692010    0.22348984    0.49125060    0.03340000
opls_700-247    C    0.38990000    0.27338981    0.54792030    0.03340000
opls_700-248    C    0.11593998    0.30729983    0.47345060    0.07710000
opls_145-249    C    0.38180995    0.23646999    0.52417953    -0.12340000
opls_700-250    C    0.34207002    0.18408004    0.45851006    0.07540000
opls_700-251    C    0.42798009    0.28332999    0.58250020    0.07500000
opls_145-252    C    0.31507999    0.17097007    0.34994013    -0.11930000
opls_145-253    C    0.36465990    0.15794006    0.53514015    -0.12630000
opls_145-254    C    0.43783003    0.31239992    0.68776075    -0.11120000
opls_145-255    C    0.45617993    0.26324989    0.50807017    -0.11920000
opls_145-256    C    0.30847987    0.13388997    0.33350975    -0.11910000
opls_145-257    C    0.35918995    0.12080989    0.51263018    -0.11890000
opls_145-258    C    0.47376999    0.32272995    0.70676055    -0.11920000
opls_145-259    C    0.49212987    0.27263979    0.53217038    -0.11520000
opls_700-260    C    0.33006998    0.10803995    0.41639047    0.06220000
opls_700-261    C    0.50158995    0.30319003    0.62812005    0.06140000
opls_700-262    C    0.82119005    0.60048992    0.38322976    0.06270000
opls_145-263    C    0.79725985    0.62471986    0.30371047    -0.11940000
opls_145-264    C    0.84961998    0.61528005    0.47776023    -0.11890000
opls_145-265    C    0.80130990    0.66219982    0.31957070    -0.11930000
opls_145-266    C    0.85272006    0.65271001    0.49893034    -0.11120000
opls_700-267    C    0.82823994    0.67714987    0.42306996    0.07500000
opls_700-268    C    0.83176000    0.71690982    0.45090965    0.03320000
opls_145-269    C    0.86664991    0.73135978    0.46353982    -0.13870000
opls_700-270    C    0.80176993    0.74107988    0.46728053    0.03320000
opls_700-271    C    0.87403011    0.76858004    0.48335023    0.03460000
opls_700-272    C    0.80794008    0.77939000    0.48406045    -0.02550000
opls_145-273    C    0.76522989    0.72830997    0.46861048    -0.12750000
opls_700-274    C    0.84415992    0.79321998    0.48889065    0.03450000
opls_700-275    C    0.91275007    0.77902980    0.49318045    0.07570000
opls_700-276    C    0.77766991    0.80397002    0.49438025    -0.02530000
opls_145-277    C    0.73652992    0.75168991    0.47306017    -0.11730000
opls_145-278    C    0.84888006    0.83180980    0.50104983    -0.11190000
opls_145-279    C    0.93822000    0.75816988    0.40374047    -0.11930000
opls_145-280    C    0.92640994    0.80762989    0.59218045    -0.16310000
opls_700-281    C    0.78372007    0.84234992    0.50926006    0.03380000
opls_700-282    C    0.74147006    0.79015992    0.48835024    0.03340000
opls_145-283    C    0.82022992    0.85497978    0.51793014    -0.11560000
opls_145-284    C    0.97499010    0.76510997    0.41476057    -0.11910000
opls_145-285    C    0.96315004    0.81590978    0.59612071    -0.11810000
opls_700-286    C    0.75373010    0.86673986    0.51272066    0.03250000
opls_700-287    C    0.71169991    0.81467995    0.49840976    0.03320000
opls_700-288    C    0.98829986    0.79448982    0.50881014    0.06250000
opls_145-289    C    0.71886008    0.85203995    0.50944970    -0.14420000
opls_700-290    C    0.75645989    0.90699003    0.51603003    0.07580000
opls_700-291    C    0.67287004    0.80460001    0.49391050    0.07540000
opls_145-292    C    0.78232007    0.92646980    0.42307988    -0.11640000
opls_145-293    C    0.73086995    0.92728000    0.60708009    -0.13060000
opls_145-294    C    0.65749006    0.77567985    0.58483040    -0.11730000
opls_145-295    C    0.64926009    0.82733999    0.40299059    -0.11910000
opls_145-296    C    0.78367987    0.96428999    0.42821004    -0.11910000
opls_145-297    C    0.73119988    0.96514002    0.60631038    -0.11910000
opls_145-298    C    0.62028985    0.76979987    0.58507954    -0.12310000
opls_145-299    C    0.61213985    0.82237984    0.40840954    -0.12750000
opls_700-300    C    0.75809993    0.98431983    0.51959970    0.08470000
opls_700-301    C    0.59684987    0.79356991    0.49971988    0.07530000
opls_142-302    C    0.53972987    0.31374978    0.64349069    0.03080000
opls_142-303    C    0.02753993    0.79978000    0.51553053    0.03210000
opls_507-304    C    0.78566986    0.36892997    0.44428965    0.20920000
opls_716-305    C    0.75340001    0.39135983    0.42373060    -0.15790000
opls_716-306    C    0.72464991    0.36982999    0.45895007    -0.15540000
opls_507-307    C    0.73864994    0.33306983    0.48450046    0.21540000
opls_700-308    C    0.71708999    0.30146996    0.50830071    -0.12340000
opls_543-309    C    0.73119985    0.26533987    0.50015989    0.19740000
opls_716-310    C    0.71056986    0.23232000    0.49934060    -0.17380000
opls_716-311    C    0.73417992    0.20348002    0.49678978    -0.17090000
opls_543-312    C    0.77011986    0.21761007    0.48642039    0.18310000
opls_716-313    C    0.89865008    0.21068001    0.50308999    -0.15580000
opls_716-314    C    0.87034007    0.18835004    0.47097043    -0.15400000
opls_507-315    C    0.83785009    0.21095999    0.47405051    0.20950000
opls_700-316    C    0.90609009    0.27948996    0.51448070    -0.05780000
opls_543-317    C    0.89232008    0.31555983    0.49885969    0.18360000
opls_716-318    C    0.91289007    0.34853981    0.49412988    -0.16950000
opls_716-319    C    0.88924008    0.37725993    0.48193972    -0.17060000
opls_543-320    C    0.85337989    0.36293990    0.47017965    0.18320000
opls_700-321    C    0.82117997    0.38352002    0.44678965    -0.09820000
opls_700-322    C    0.80229010    0.19655994    0.47445953    -0.05780000
opls_507-323    C    0.88436005    0.24773980    0.50649977    0.20890000
opls_700-324    C    0.67753984    0.30377004    0.53943986    0.06950000
opls_145-325    C    0.66187991    0.27919993    0.65388982    -0.12310000
opls_145-326    C    0.65360987    0.32726988    0.45448055    -0.12240000
opls_145-327    C    0.62474000    0.27549991    0.67049993    -0.17010000
opls_145-328    C    0.61641000    0.32604985    0.48089980    -0.18010000
opls_145-329    C    0.60135000    0.29917993    0.58436065    0.21690000
opls_700-330    C    0.94594985    0.27599995    0.53014013    0.07690000
opls_145-331    C    0.96601991    0.25076982    0.43545968    -0.12630000
opls_145-332    C    0.96546993    0.29956002    0.63556057    -0.11810000
opls_145-333    C    0.00353002    0.24895988    0.44591955    -0.17340000
opls_145-334    C    0.00304003    0.30022988    0.63534986    -0.17150000
opls_145-335    C    0.02248989    0.27497999    0.53927997    0.21850000
opls_700-336    C    0.82537990    0.42373998    0.43437019    0.07570000
opls_145-337    C    0.85208008    0.43986002    0.33327053    -0.08050000
opls_145-338    C    0.80320006    0.44734987    0.52774052    -0.12630000
opls_145-339    C    0.85748999    0.47735991    0.33070979    -0.17060000
opls_145-340    C    0.80644987    0.48501985    0.51567059    -0.17380000
opls_145-341    C    0.83403001    0.50051987    0.41855954    0.22190000
opls_700-342    C    0.79797988    0.15630001    0.47317048    0.07580000
opls_145-343    C    0.81993000    0.13391987    0.57443003    -0.11820000
opls_145-344    C    0.77179009    0.13894991    0.37346027    -0.12220000
opls_145-345    C    0.81722995    0.09616981    0.57026046    -0.16920000
opls_145-346    C    0.76664986    0.10140995    0.37969975    -0.17380000
opls_145-347    C    0.78972995    0.07953005    0.47675007    0.21660000
opls_142-348    C    0.07657994    0.30386983    0.47977065    0.03110000
opls_142-349    C    0.75941000    0.02423007    0.52504964    0.03080000
opls_142-350    C    0.32146989    0.06912982    0.40504067    0.03080000
opls_142-351    C    0.81585012    0.56100997    0.36979021    0.03080000
opls_542-352    N    0.25933011    0.84708000    0.01199061    -0.36970000
opls_542-353    N    0.24324989    0.77011992    0.02263020    -0.26540000
opls_542-354    N    0.32412010    0.75450983    0.02322019    -0.36570000
opls_542-355    N    0.34038991    0.83129008    0.01769960    -0.27160000
opls_750-356    N    0.25793987    0.55405984    0.00203025    -0.25810000
opls_750-357    N    0.53962009    0.76383002    0.06171061    -0.27060000
opls_750-358    N    0.04328993    0.82882982    0.06664989    -0.27050000
opls_750-359    N    0.56425008    0.29251997    0.08723993    -0.23440000
opls_542-360    N    0.77556987    0.33368974    0.97454010    -0.36630000
opls_542-361    N    0.76684006    0.25494993    0.98911004    -0.27140000
opls_542-362    N    0.84753994    0.24670988    0.99087008    -0.36760000
opls_542-363    N    0.85670008    0.32569996    0.98264993    -0.27640000
opls_750-364    N    0.78738008    0.04145996    0.97442978    -0.25420000
opls_750-365    N    0.34304992    0.04450986    0.95946073    -0.25670000
opls_750-366    N    0.06046992    0.27549989    0.03576980    -0.26520000
opls_750-367    N    0.83988992    0.53824995    0.91905037    -0.25760000
opls_542-368    N    0.25932998    0.84708000    0.51199061    -0.36960000
opls_542-369    N    0.24325003    0.77011992    0.52263020    -0.26540000
opls_542-370    N    0.32411996    0.75450983    0.52322019    -0.36570000
opls_542-371    N    0.34039005    0.83128980    0.51769960    -0.27160000
opls_750-372    N    0.25794001    0.55405984    0.50203025    -0.25810000
opls_750-373    N    0.53961996    0.76383002    0.56171061    -0.27070000
opls_750-374    N    0.04329006    0.82882982    0.56664989    -0.27050000
opls_750-375    N    0.56424995    0.29251997    0.58723993    -0.23440000
opls_542-376    N    0.77557000    0.33369002    0.47454010    -0.36640000
opls_542-377    N    0.76683993    0.25494993    0.48911004    -0.27150000
opls_542-378    N    0.84754007    0.24670988    0.49087008    -0.36760000
opls_542-379    N    0.85669994    0.32569996    0.48264993    -0.27640000
opls_750-380    N    0.78737995    0.04145996    0.47442978    -0.25420000
opls_750-381    N    0.34305006    0.04450986    0.45946073    -0.25660000
opls_750-382    N    0.06047005    0.27549989    0.53576980    -0.26440000
opls_750-383    N    0.83989005    0.53824995    0.41905037    -0.25770000
opls_547-384    H    0.24424988    0.93600996    0.93979038    0.09590000
opls_547-385    H    0.18527994    0.90034998    0.00903944    0.12700000
opls_547-386    H    0.15581005    0.75201990    0.02038057    0.11870000
opls_547-387    H    0.19620002    0.69373983    0.03494059    0.11910000
opls_547-388    H    0.39830012    0.70140004    0.03515998    0.10540000
opls_547-389    H    0.33972990    0.66503977    0.96981029    0.09390000
opls_547-390    H    0.42781991    0.84949995    0.02709972    0.12070000
opls_547-391    H    0.38732988    0.90776992    0.02439024    0.11520000
opls_545-392    H    0.26588012    0.78654991    0.02060987    0.31860000
opls_545-393    H    0.31786992    0.81472999    0.01417951    0.31180000
opls_146-394    H    0.15266006    0.78587990    0.24963993    0.11290000
opls_146-395    H    0.15149984    0.87042996    0.87242036    0.11540000
opls_146-396    H    0.08657004    0.78513986    0.24799020    0.10310000
opls_146-397    H    0.08599987    0.87513995    0.89952008    0.10960000
opls_146-398    H    0.42832995    0.73055975    0.87037028    0.12790000
opls_146-399    H    0.43403005    0.81472992    0.24799020    0.13040000
opls_146-400    H    0.49356995    0.72116997    0.89463038    0.08760000
opls_146-401    H    0.50012003    0.81105998    0.24156976    0.06930000
opls_146-402    H    0.36051986    0.92673989    0.79357039    0.13040000
opls_146-403    H    0.27795009    0.94853986    0.16272970    0.08640000
opls_146-404    H    0.37672000    0.99156989    0.79205080    0.12790000
opls_146-405    H    0.28912006    0.01409000    0.13333945    0.08640000
opls_146-406    H    0.30769989    0.65878986    0.20617057    0.11210000
opls_146-407    H    0.22400989    0.66779994    0.82984960    0.07520000
opls_146-408    H    0.30509010    0.59215996    0.18531033    0.09410000
opls_146-409    H    0.21610985    0.60144976    0.83723063    0.12410000
opls_144-410    H    0.54296010    0.81602004    0.95730034    0.03980000
opls_144-411    H    0.31081004    0.54603991    0.91241054    0.04720000
opls_146-412    H    0.33002005    0.48561996    0.80920999    0.10480000
opls_146-413    H    0.23469001    0.49316989    0.11822042    0.07520000
opls_146-414    H    0.32553000    0.41891984    0.81109026    0.08640000
opls_146-415    H    0.23259004    0.42629991    0.13826013    0.11030000
opls_146-416    H    0.21753005    0.38376991    0.96204006    0.10310000
opls_146-417    H    0.34693994    0.39162009    0.03223979    0.12790000
opls_146-418    H    0.39554996    0.34835007    0.04220015    0.07200000
opls_146-419    H    0.22576986    0.25215990    0.94850012    0.07390000
opls_146-420    H    0.17913006    0.36226997    0.79445041    0.08640000
opls_146-421    H    0.19328000    0.27254985    0.14150010    0.10310000
opls_146-422    H    0.27372994    0.20889978    0.98454012    0.08110000
opls_146-423    H    0.11354986    0.35441983    0.81006026    0.11450000
opls_146-424    H    0.12794005    0.26160987    0.13602042    0.06930000
opls_146-425    H    0.40401998    0.21667989    0.03123954    0.13040000
opls_146-426    H    0.29925999    0.18985988    0.77304976    0.11540000
opls_146-427    H    0.38625990    0.16652990    0.12011061    0.08640000
opls_146-428    H    0.41728997    0.32682007    0.26060055    0.07340000
opls_146-429    H    0.45005003    0.24051009    0.92418053    0.07520000
opls_146-430    H    0.28660992    0.12479002    0.75093022    0.08610000
opls_146-431    H    0.37689000    0.10119010    0.07617024    0.08640000
opls_146-432    H    0.48035007    0.34583995    0.28807954    0.11030000
opls_146-433    H    0.51354999    0.25678999    0.97135962    0.11050000
opls_146-434    H    0.77559986    0.61402984    0.72399039    0.08610000
opls_146-435    H    0.86886002    0.59695974    0.03995052    0.08490000
opls_146-436    H    0.78358994    0.67996982    0.74594012    0.12080000
opls_146-437    H    0.87405003    0.66297974    0.08150987    0.08680000
opls_146-438    H    0.88949006    0.71231996    0.95662979    0.13040000
opls_146-439    H    0.75960997    0.69899986    0.96622079    0.11610000
opls_146-440    H    0.70921005    0.74028978    0.96587002    0.11810000
opls_146-441    H    0.87601011    0.84364993    0.99732027    0.09490000
opls_146-442    H    0.92933003    0.73626984    0.82047055    0.06930000
opls_146-443    H    0.90845990    0.82306001    0.17471040    0.10310000
opls_146-444    H    0.82581005    0.88398004    0.03762032    0.11610000
opls_146-445    H    0.99388998    0.74794994    0.84425965    0.09810000
opls_146-446    H    0.97261003    0.83847007    0.17428030    0.07520000
opls_146-447    H    0.69581993    0.87086987    0.01474966    0.09420000
opls_146-448    H    0.80096989    0.91212980    0.83966990    0.06690000
opls_146-449    H    0.71060989    0.91331994    0.18372009    0.11490000
opls_146-450    H    0.67450012    0.75828994    0.16398033    0.07520000
opls_146-451    H    0.66002999    0.84931993    0.82487066    0.08490000
opls_146-452    H    0.80428003    0.97883992    0.85604079    0.08490000
opls_146-453    H    0.71088987    0.98008004    0.17890971    0.08610000
opls_146-454    H    0.60911990    0.74730995    0.15874977    0.08000000
opls_146-455    H    0.59449985    0.84096988    0.83810074    0.10580000
opls_144-456    H    0.54593986    0.34039009    0.20563016    0.04730000
opls_144-457    H    0.04369010    0.77599006    0.96847042    0.03990000
opls_547-458    H    0.75182008    0.41996983    0.88631975    0.09380000
opls_547-459    H    0.69666991    0.37920980    0.96196074    0.11820000
opls_547-460    H    0.68120983    0.22957995    0.99702032    0.11370000
opls_547-461    H    0.72618006    0.17491979    0.00325980    0.12060000
opls_547-462    H    0.92652012    0.20163007    0.02133991    0.10980000
opls_547-463    H    0.87243987    0.15909998    0.94735981    0.08220000
opls_547-464    H    0.94225989    0.35120987    0.99707981    0.12070000
opls_547-465    H    0.89716998    0.40587979    0.98243055    0.11520000
opls_545-466    H    0.78817005    0.27302974    0.98537056    0.27550000
opls_545-467    H    0.83548005    0.30748988    0.97940005    0.27550000
opls_146-468    H    0.67930988    0.26209995    0.23202958    0.06880000
opls_146-469    H    0.66339990    0.34576999    0.85757030    0.07170000
opls_146-470    H    0.61368006    0.25530984    0.25713004    0.12790000
opls_146-471    H    0.59861991    0.34436988    0.91025015    0.06690000
opls_146-472    H    0.95249988    0.23318977    0.84447036    0.08760000
opls_146-473    H    0.95113994    0.31780994    0.22098964    0.08760000
opls_146-474    H    0.01841987    0.22947996    0.86854082    0.12790000
opls_146-475    H    0.01740009    0.31976990    0.21463985    0.06690000
opls_146-476    H    0.86874995    0.42285993    0.75152021    0.08760000
opls_146-477    H    0.78353011    0.43622009    0.11620009    0.07520000
opls_146-478    H    0.87857005    0.48902979    0.75114961    0.13040000
opls_146-479    H    0.78866006    0.50262002    0.08960979    0.07520000
opls_146-480    H    0.83904006    0.14615986    0.16249049    0.10310000
opls_146-481    H    0.75546000    0.15478002    0.78508003    0.06930000
opls_146-482    H    0.83477005    0.07945995    0.14976983    0.11210000
opls_146-483    H    0.74583000    0.08871986    0.80165048    0.08640000
opls_144-484    H    0.06103002    0.32778978    0.92974078    0.04730000
opls_144-485    H    0.73535987    0.03856012    0.07938046    0.04960000
opls_144-486    H    0.29473998    0.06219982    0.84714018    0.04730000
opls_144-487    H    0.78951991    0.55190989    0.81429057    0.04970000
opls_547-488    H    0.24425001    0.93600996    0.43979038    0.09590000
opls_547-489    H    0.18528008    0.90034998    0.50904068    0.12700000
opls_547-490    H    0.15580991    0.75201990    0.52038057    0.11870000
opls_547-491    H    0.19619988    0.69373983    0.53494059    0.11910000
opls_547-492    H    0.39829999    0.70139977    0.53515998    0.10540000
opls_547-493    H    0.33973004    0.66504004    0.46981029    0.09380000
opls_547-494    H    0.42782004    0.84949995    0.52709972    0.12070000
opls_547-495    H    0.38733002    0.90776992    0.52439024    0.11520000
opls_545-496    H    0.26587999    0.78654991    0.52060987    0.31870000
opls_545-497    H    0.31787006    0.81472999    0.51418075    0.31180000
opls_146-498    H    0.15265992    0.78587990    0.74963993    0.11290000
opls_146-499    H    0.15149997    0.87042996    0.37242036    0.11540000
opls_146-500    H    0.08656990    0.78513986    0.74799020    0.10310000
opls_146-501    H    0.08600001    0.87513995    0.39952008    0.10960000
opls_146-502    H    0.42833008    0.73056002    0.37037028    0.12790000
opls_146-503    H    0.43402992    0.81472992    0.74799020    0.13040000
opls_146-504    H    0.49357008    0.72116997    0.39463038    0.08760000
opls_146-505    H    0.50011989    0.81105998    0.74156976    0.06930000
opls_146-506    H    0.36051999    0.92673989    0.29357039    0.13040000
opls_146-507    H    0.27794995    0.94853986    0.66272970    0.08640000
opls_146-508    H    0.37671986    0.99156989    0.29204956    0.12790000
opls_146-509    H    0.28911993    0.01409000    0.63334069    0.08650000
opls_146-510    H    0.30770003    0.65878986    0.70617057    0.11210000
opls_146-511    H    0.22401003    0.66779994    0.32984960    0.07520000
opls_146-512    H    0.30508997    0.59215996    0.68531033    0.09410000
opls_146-513    H    0.21610998    0.60145003    0.33723063    0.12410000
opls_144-514    H    0.54295997    0.81602004    0.45730034    0.03980000
opls_144-515    H    0.31080990    0.54603991    0.41241054    0.04720000
opls_146-516    H    0.33001992    0.48561996    0.30920999    0.10480000
opls_146-517    H    0.23468987    0.49316989    0.61822042    0.07520000
opls_146-518    H    0.32552986    0.41891984    0.31109026    0.08640000
opls_146-519    H    0.23258991    0.42629991    0.63826013    0.11030000
opls_146-520    H    0.21752991    0.38376991    0.46204006    0.10310000
opls_146-521    H    0.34694008    0.39161982    0.53223979    0.10960000
opls_146-522    H    0.39555010    0.34834980    0.54220015    0.07200000
opls_146-523    H    0.22577000    0.25215990    0.44850012    0.07390000
opls_146-524    H    0.17912992    0.36226997    0.29445041    0.08640000
opls_146-525    H    0.19327986    0.27254985    0.64150010    0.10310000
opls_146-526    H    0.27373007    0.20890005    0.48454012    0.08110000
opls_146-527    H    0.11355000    0.35441983    0.31006026    0.11450000
opls_146-528    H    0.12793991    0.26160987    0.63602042    0.06930000
opls_146-529    H    0.40401985    0.21667989    0.53123954    0.13040000
opls_146-530    H    0.29925986    0.18985988    0.27304976    0.11540000
opls_146-531    H    0.38626003    0.16652990    0.62011061    0.08640000
opls_146-532    H    0.41728984    0.32681980    0.76060055    0.07330000
opls_146-533    H    0.45004990    0.24050982    0.42418053    0.07520000
opls_146-534    H    0.28661006    0.12479002    0.25093022    0.08610000
opls_146-535    H    0.37688987    0.10118983    0.57617024    0.08640000
opls_146-536    H    0.48034994    0.34583995    0.78808078    0.11030000
opls_146-537    H    0.51354986    0.25678999    0.47135962    0.11040000
opls_146-538    H    0.77559999    0.61402984    0.22399039    0.08610000
opls_146-539    H    0.86885989    0.59696001    0.53995052    0.08490000
opls_146-540    H    0.78359008    0.67996982    0.24594012    0.11540000
opls_146-541    H    0.87404989    0.66298002    0.58150987    0.08680000
opls_146-542    H    0.88948992    0.71231996    0.45662979    0.13040000
opls_146-543    H    0.75961011    0.69899986    0.46621955    0.11610000
opls_146-544    H    0.70920992    0.74028978    0.46587002    0.11810000
opls_146-545    H    0.87600997    0.84364993    0.49732027    0.09480000
opls_146-546    H    0.92932990    0.73626984    0.32047055    0.06930000
opls_146-547    H    0.90846003    0.82306001    0.67471040    0.10310000
opls_146-548    H    0.82580991    0.88397977    0.53762032    0.11610000
opls_146-549    H    0.99389011    0.74794994    0.34425965    0.09820000
opls_146-550    H    0.97260990    0.83846980    0.67428030    0.08650000
opls_146-551    H    0.69582006    0.87086987    0.51474966    0.09410000
opls_146-552    H    0.80097002    0.91212980    0.33966990    0.06690000
opls_146-553    H    0.71061002    0.91331994    0.68372009    0.11490000
opls_146-554    H    0.67449999    0.75828994    0.66398033    0.07520000
opls_146-555    H    0.66003012    0.84931993    0.32487066    0.08490000
opls_146-556    H    0.80427989    0.97883992    0.35603955    0.08490000
opls_146-557    H    0.71089001    0.98007977    0.67890971    0.08610000
opls_146-558    H    0.60912003    0.74730995    0.65874977    0.08000000
opls_146-559    H    0.59449999    0.84096988    0.33809950    0.10580000
opls_144-560    H    0.54594000    0.34038982    0.70563016    0.04730000
opls_144-561    H    0.04368997    0.77598979    0.46847042    0.03990000
opls_547-562    H    0.75181995    0.41996983    0.38631975    0.09380000
opls_547-563    H    0.69667005    0.37920980    0.46196074    0.11820000
opls_547-564    H    0.68120996    0.22957995    0.49702032    0.11370000
opls_547-565    H    0.72617992    0.17492006    0.50325980    0.12070000
opls_547-566    H    0.92651998    0.20163007    0.52133991    0.10980000
opls_547-567    H    0.87244001    0.15909998    0.44735981    0.08220000
opls_547-568    H    0.94226003    0.35120987    0.49707981    0.12070000
opls_547-569    H    0.89716985    0.40587979    0.48243055    0.11520000
opls_545-570    H    0.78816991    0.27303002    0.48537056    0.27550000
opls_545-571    H    0.83547991    0.30748988    0.47940005    0.27550000
opls_146-572    H    0.67931002    0.26209995    0.73202958    0.06880000
opls_146-573    H    0.66340003    0.34576999    0.35757030    0.07170000
opls_146-574    H    0.61367992    0.25530984    0.75713004    0.12790000
opls_146-575    H    0.59862004    0.34436988    0.41025015    0.06690000
opls_146-576    H    0.95250001    0.23319004    0.34447036    0.08760000
opls_146-577    H    0.95114008    0.31780994    0.72098964    0.08760000
opls_146-578    H    0.01842000    0.22947996    0.36853958    0.12790000
opls_146-579    H    0.01739996    0.31976990    0.71463985    0.06690000
opls_146-580    H    0.86875008    0.42285993    0.25152021    0.08760000
opls_146-581    H    0.78352998    0.43621982    0.61620009    0.07520000
opls_146-582    H    0.87856991    0.48903006    0.25114961    0.13040000
opls_146-583    H    0.78865993    0.50262002    0.58960979    0.07520000
opls_146-584    H    0.83903992    0.14615986    0.66249049    0.10310000
opls_146-585    H    0.75545986    0.15478002    0.28508003    0.06930000
opls_146-586    H    0.83476992    0.07945995    0.64976983    0.11210000
opls_146-587    H    0.74582987    0.08871986    0.30165048    0.08640000
opls_144-588    H    0.06102988    0.32779005    0.42973954    0.04730000
opls_144-589    H    0.73536001    0.03855985    0.57938046    0.04960000
opls_144-590    H    0.29474011    0.06219982    0.34714018    0.04730000
opls_144-591    H    0.78952005    0.55190989    0.31429057    0.04970000
