#======================================================================
# Crystal Data Generated By AuToFF
#----------------------------------------------------------------------

data_AuToFF_phase_1

_cell_length_a                         20.3958
_cell_length_b                         20.3958
_cell_length_c                         33.7704
_cell_angle_alpha                      90.00
_cell_angle_beta                       90.00
_cell_angle_gamma                      120.00
_symmetry_space_group_name_H-M_alt     'P 1'
_symmetry_space_group_IT_number        1

loop_
_space_group_symop_operation_xyz
   'x, y, z'

loop_
   _atom_site_label
   _atom_site_type_symbol
   _atom_site_fract_x
   _atom_site_fract_y
   _atom_site_fract_z
   _atom_site_charge
MOF2_Si3-0    Si    0.86330014    0.66279989    0.46069990    0.55750000
MOF2_Si3-1    Si    0.33719983    0.20050013    0.12737012    0.55750000
MOF2_Si3-2    Si    0.79950003    0.13669998    0.79402998    0.55750000
MOF2_Si3-3    Si    0.13669986    0.33720011    0.96069990    0.55730000
MOF2_Si3-4    Si    0.66280017    0.79949987    0.62737012    0.55750000
MOF2_Si3-5    Si    0.20049997    0.86330002    0.29402998    0.55750000
opls_145-6    C    0.76770013    0.61429984    0.43790005    -0.24620000
opls_145-7    C    0.70339985    0.55029983    0.45170001    -0.15940000
opls_145-8    C    0.63379991    0.52650017    0.43380001    -0.22780000
opls_700-9    C    0.62840003    0.56680016    0.40189989    0.04680000
opls_145-10    C    0.69279984    0.63080017    0.38809993    -0.22780000
opls_145-11    C    0.76239979    0.65459983    0.40599993    -0.15940000
opls_142-12    C    0.55329975    0.54219998    0.38290011    0.09660000
opls_145-13    C    0.42990008    0.44040008    0.37619987    0.16770000
opls_145-14    C    0.39140015    0.48180010    0.37449986    -0.22550000
opls_145-15    C    0.31669989    0.44849994    0.35950004    -0.21870000
opls_145-16    C    0.27859994    0.37199999    0.34810011    0.04520000
opls_145-17    C    0.31730000    0.33439995    0.34880013    -0.23260000
opls_145-18    C    0.39060018    0.36550007    0.36369987    -0.22880000
opls_145-19    C    0.90950002    0.61010016    0.44510015    -0.24570000
opls_145-20    C    0.86370004    0.53800030    0.42980006    -0.15940000
opls_145-21    C    0.89539996    0.49499980    0.41739985    -0.22780000
opls_700-22    C    0.97309996    0.52410028    0.42040011    0.04930000
opls_145-23    C    0.01899996    0.59620014    0.43579999    -0.22780000
opls_145-24    C    0.98720023    0.63920008    0.44810011    -0.15950000
opls_142-25    C    0.00509976    0.47809976    0.40780003    0.08520000
opls_145-26    C    0.09710022    0.45980022    0.37570002    0.15600000
opls_145-27    C    0.08550002    0.39369981    0.39460000    -0.22880000
opls_145-28    C    0.11600006    0.35140019    0.37999994    -0.23260000
opls_700-29    C    0.16149993    0.37700019    0.34700004    0.04180000
opls_145-30    C    0.17460016    0.44219986    0.32780009    -0.22980000
opls_145-31    C    0.14350019    0.48469990    0.34190001    -0.22770000
opls_145-32    C    0.91280020    0.75830027    0.43830011    -0.24620000
opls_145-33    C    0.91140000    0.82300003    0.45000000    -0.15940000
opls_145-34    C    0.94889985    0.88879982    0.42759991    -0.22780000
opls_700-35    C    0.98779992    0.88989984    0.39349993    0.04890000
opls_145-36    C    0.98920012    0.82520008    0.38190013    -0.22780000
opls_145-37    C    0.95170026    0.75940029    0.40429992    -0.15940000
opls_142-38    C    0.01899992    0.96209990    0.36940013    0.09750000
opls_145-39    C    0.07079965    0.09629978    0.37280014    0.17170000
opls_145-40    C    0.11660005    0.15690008    0.39940007    -0.22550000
opls_145-41    C    0.15549988    0.23059987    0.38530014    -0.23270000
opls_145-42    C    0.15380025    0.24840007    0.34659998    0.03780000
opls_145-43    C    0.10909996    0.19130026    0.32100005    -0.22660000
opls_145-44    C    0.06810021    0.11489995    0.33450004    -0.22880000
opls_145-45    C    0.86350016    0.66860006    0.51460006    -0.24570000
opls_145-46    C    0.81570004    0.60390029    0.53609996    -0.15940000
opls_145-47    C    0.81180011    0.60779991    0.57710006    -0.22780000
opls_700-48    C    0.85560027    0.67630021    0.59649989    0.05300000
opls_145-49    C    0.90329988    0.74099997    0.57489991    -0.22780000
opls_145-50    C    0.90730003    0.73709979    0.53399989    -0.15940000
opls_142-51    C    0.84690003    0.67980013    0.63890004    0.08650000
opls_145-52    C    0.79800024    0.65640017    0.70359990    0.15700000
opls_145-53    C    0.85839971    0.66659986    0.72680010    -0.23510000
opls_145-54    C    0.86089991    0.67080010    0.76679992    -0.23300000
opls_700-55    C    0.79910005    0.66389991    0.78739991    0.04250000
opls_145-56    C    0.73489982    0.65129976    0.76560005    -0.22900000
opls_145-57    C    0.73370006    0.64910028    0.72519988    -0.22550000
opls_701-58    C    0.80120018    0.66689992    0.83180004    0.01300000
opls_145-59    C    0.38569997    0.15340016    0.10456998    -0.24620000
opls_145-60    C    0.44969992    0.15310010    0.11836993    -0.15950000
opls_145-61    C    0.47350017    0.10730000    0.10046994    -0.22780000
opls_700-62    C    0.43320006    0.06160011    0.06857011    0.04680000
opls_145-63    C    0.36919993    0.06199981    0.05476986    -0.22780000
opls_145-64    C    0.34540017    0.10779991    0.07266985    -0.15940000
opls_142-65    C    0.45779990    0.01109986    0.04957004    0.09660000
opls_145-66    C    0.55960024    0.98950025    0.04287009    0.16770000
opls_145-67    C    0.51819983    0.90960003    0.04117008    -0.22560000
opls_145-68    C    0.55150016    0.86820002    0.02616996    -0.21870000
opls_145-69    C    0.62800019    0.90660002    0.01477004    0.04520000
opls_145-70    C    0.66560013    0.98290012    0.01547006    -0.23260000
opls_145-71    C    0.63450015    0.02510009    0.03037009    -0.22880000
opls_145-72    C    0.38990006    0.29940022    0.11177007    -0.24570000
opls_145-73    C    0.46199982    0.32569998    0.09646999    -0.15940000
opls_145-74    C    0.50500008    0.40040015    0.08407007    -0.22780000
opls_700-75    C    0.47589972    0.44899985    0.08707004    0.04930000
opls_145-76    C    0.40380005    0.42280030    0.10246991    -0.22790000
opls_145-77    C    0.36080018    0.34799992    0.11477004    -0.15940000
opls_142-78    C    0.52189981    0.52700008    0.07446995    0.08520000
opls_145-79    C    0.54020007    0.63730009    0.04236995    0.15600000
opls_145-80    C    0.60630026    0.69180016    0.06126993    -0.22880000
opls_145-81    C    0.64859981    0.76459978    0.04666986    -0.23260000
opls_700-82    C    0.62299987    0.78449982    0.01366996    0.04180000
opls_145-83    C    0.55780034    0.73240021    0.99447001    -0.22980000
opls_145-84    C    0.51530007    0.65880006    0.00856993    -0.22760000
opls_145-85    C    0.24170013    0.15450018    0.10497003    -0.24620000
opls_145-86    C    0.17699978    0.08839978    0.11666992    -0.15940000
opls_145-87    C    0.11119995    0.06009982    0.09427013    -0.22780000
opls_700-88    C    0.11009998    0.09790028    0.06016985    0.04890000
opls_145-89    C    0.17480005    0.16400012    0.04857005    -0.22780000
opls_145-90    C    0.24059987    0.19230007    0.07097014    -0.15940000
opls_142-91    C    0.03789997    0.05689996    0.03607005    0.09750000
opls_145-92    C    0.90370006    0.97450021    0.03947007    0.17170000
opls_145-93    C    0.84309979    0.95970001    0.06606999    -0.22550000
opls_145-94    C    0.76940003    0.92490013    0.05197007    -0.23260000
opls_145-95    C    0.75159967    0.90539979    0.01326991    0.03780000
opls_145-96    C    0.80870000    0.91780009    0.98766997    -0.22660000
opls_145-97    C    0.88509983    0.95320009    0.00116996    -0.22880000
opls_145-98    C    0.33140003    0.19489981    0.18126999    -0.24570000
opls_145-99    C    0.39609987    0.21179985    0.20276988    -0.15940000
opls_145-100    C    0.39219997    0.20400005    0.24376999    -0.22780000
opls_700-101    C    0.32370026    0.17930022    0.26317011    0.05300000
opls_145-102    C    0.25899984    0.16229998    0.24157013    -0.22780000
opls_145-103    C    0.26289983    0.17019999    0.20067011    -0.15940000
opls_142-104    C    0.32020008    0.16709977    0.30556997    0.08650000
opls_145-105    C    0.34359978    0.14159997    0.37027012    0.15700000
opls_145-106    C    0.33339996    0.19180016    0.39347002    -0.23510000
opls_145-107    C    0.32920018    0.19010003    0.43347014    -0.23300000
opls_700-108    C    0.33610002    0.13520026    0.45407013    0.04250000
opls_145-109    C    0.34869994    0.08359999    0.43226998    -0.22900000
opls_145-110    C    0.35089971    0.08459980    0.39187010    -0.22550000
opls_701-111    C    0.33309989    0.13430008    0.49846996    0.01300000
opls_145-112    C    0.84659990    0.23230000    0.77123013    -0.24620000
opls_145-113    C    0.84690023    0.29660007    0.78503009    -0.15940000
opls_145-114    C    0.89269993    0.36619982    0.76713009    -0.22780000
opls_700-115    C    0.93840019    0.37160029    0.73522996    0.04680000
opls_145-116    C    0.93800023    0.30720002    0.72143001    -0.22780000
opls_145-117    C    0.89220005    0.23760026    0.73933000    -0.15940000
opls_142-118    C    0.98889985    0.44670016    0.71622989    0.09660000
opls_145-119    C    0.01049996    0.57010023    0.70952994    0.16760000
opls_145-120    C    0.09040002    0.60859987    0.70782993    -0.22550000
opls_145-121    C    0.13179995    0.68330004    0.69283011    -0.21870000
opls_145-122    C    0.09339986    0.72139999    0.68142989    0.04520000
opls_145-123    C    0.01709987    0.68269993    0.68212991    -0.23260000
opls_145-124    C    0.97490016    0.60939984    0.69702994    -0.22880000
opls_145-125    C    0.70060021    0.09050018    0.77842993    -0.24570000
opls_145-126    C    0.67429994    0.13630028    0.76313014    -0.15940000
opls_145-127    C    0.59959996    0.10460005    0.75072993    -0.22780000
opls_700-128    C    0.55099982    0.02689987    0.75372989    0.04930000
opls_145-129    C    0.57720027    0.98100013    0.76913007    -0.22780000
opls_145-130    C    0.65200007    0.01280000    0.78142989    -0.15940000
opls_142-131    C    0.47299995    0.99490015    0.74113010    0.08520000
opls_145-132    C    0.36269999    0.90290025    0.70903010    0.15600000
opls_145-133    C    0.30820021    0.91450002    0.72793008    -0.22880000
opls_145-134    C    0.23540013    0.88400003    0.71333002    -0.23260000
opls_700-135    C    0.21550020    0.83849998    0.68033011    0.04180000
opls_145-136    C    0.26759999    0.82539993    0.66112987    -0.22980000
opls_145-137    C    0.34120023    0.85650004    0.67523008    -0.22760000
opls_145-138    C    0.84549996    0.08720011    0.77162989    -0.24620000
opls_145-139    C    0.91160023    0.08860019    0.78333008    -0.15940000
opls_145-140    C    0.93989991    0.05109980    0.76092999    -0.22780000
opls_700-141    C    0.90210010    0.01219989    0.72683000    0.04890000
opls_145-142    C    0.83599983    0.01079981    0.71522991    -0.22780000
opls_145-143    C    0.80770015    0.04830020    0.73763000    -0.15940000
opls_142-144    C    0.94310011    0.98100013    0.70272991    0.09750000
opls_145-145    C    0.02549980    0.92920001    0.70612992    0.17170000
opls_145-146    C    0.04030016    0.88339991    0.73273014    -0.22550000
opls_145-147    C    0.07510010    0.84450000    0.71862992    -0.23260000
opls_145-148    C    0.09460008    0.84620014    0.67993006    0.03780000
opls_145-149    C    0.08220032    0.89090022    0.65433012    -0.22660000
opls_145-150    C    0.04679996    0.93189996    0.66783011    -0.22880000
opls_145-151    C    0.80510030    0.13650013    0.84793014    -0.24570000
opls_145-152    C    0.78820010    0.18429986    0.86943003    -0.15950000
opls_145-153    C    0.79599992    0.18820004    0.91043014    -0.22780000
opls_700-154    C    0.82070025    0.14440013    0.92982997    0.05300000
opls_145-155    C    0.83769979    0.09670005    0.90822999    -0.22780000
opls_145-156    C    0.82980014    0.09270022    0.86732997    -0.15940000
opls_142-157    C    0.83289989    0.15310010    0.97223012    0.08650000
opls_145-158    C    0.85839998    0.20199986    0.03692997    0.15700000
opls_145-159    C    0.80819984    0.14159997    0.06012988    -0.23510000
opls_145-160    C    0.80989991    0.13909987    0.10013000    -0.23300000
opls_700-161    C    0.86479993    0.20089983    0.12072999    0.04250000
opls_145-162    C    0.91640023    0.26510025    0.09893013    -0.22900000
opls_145-163    C    0.91539974    0.26629992    0.05852996    -0.22550000
opls_701-164    C    0.86569992    0.19880000    0.16513011    0.01300000
opls_145-165    C    0.23229987    0.38570016    0.93790005    -0.24620000
opls_145-166    C    0.29660015    0.44970017    0.95170001    -0.15940000
opls_145-167    C    0.36620009    0.47349983    0.93380001    -0.22780000
opls_700-168    C    0.37159997    0.43319984    0.90189989    0.04680000
opls_145-169    C    0.30720016    0.36919983    0.88809993    -0.22780000
opls_145-170    C    0.23760021    0.34540017    0.90599993    -0.15940000
opls_142-171    C    0.44670025    0.45780002    0.88290011    0.09660000
opls_145-172    C    0.57009992    0.55959992    0.87619987    0.16770000
opls_145-173    C    0.60859985    0.51819990    0.87449986    -0.22550000
opls_145-174    C    0.68330011    0.55150006    0.85950004    -0.21870000
opls_145-175    C    0.72140006    0.62800001    0.84810011    0.04520000
opls_145-176    C    0.68270000    0.66560005    0.84880013    -0.23260000
opls_145-177    C    0.60939982    0.63449993    0.86369987    -0.22880000
opls_145-178    C    0.09049998    0.38989984    0.94510015    -0.24570000
opls_145-179    C    0.13630024    0.46200026    0.92980006    -0.15940000
opls_145-180    C    0.10460004    0.50500020    0.91739985    -0.22780000
opls_700-181    C    0.02690032    0.47590029    0.92040011    0.04930000
opls_145-182    C    0.98100004    0.40379986    0.93579999    -0.22780000
opls_145-183    C    0.01279977    0.36079992    0.94810011    -0.15940000
opls_142-184    C    0.99490024    0.52190024    0.90780003    0.08520000
opls_145-185    C    0.90289978    0.54019978    0.87570002    0.15600000
opls_145-186    C    0.91449998    0.60630019    0.89460000    -0.22880000
opls_145-187    C    0.88399994    0.64859981    0.87999994    -0.23260000
opls_700-188    C    0.83850007    0.62299981    0.84700004    0.04180000
opls_145-189    C    0.82539984    0.55780014    0.82780009    -0.22980000
opls_145-190    C    0.85649981    0.51530010    0.84190001    -0.22760000
opls_145-191    C    0.08719980    0.24169973    0.93830011    -0.24620000
opls_145-192    C    0.08860000    0.17699997    0.95000000    -0.15940000
opls_145-193    C    0.05110015    0.11120018    0.92759991    -0.22780000
opls_700-194    C    0.01220008    0.11010016    0.89349993    0.04890000
opls_145-195    C    0.01079988    0.17479992    0.88190013    -0.22780000
opls_145-196    C    0.04830002    0.24060027    0.90429992    -0.15940000
opls_142-197    C    0.98100008    0.03790010    0.86940013    0.09750000
opls_145-198    C    0.92920035    0.90370022    0.87280014    0.17170000
opls_145-199    C    0.88339995    0.84309992    0.89940007    -0.22550000
opls_145-200    C    0.84450012    0.76940013    0.88530014    -0.23260000
opls_145-201    C    0.84619975    0.75159993    0.84659998    0.03780000
opls_145-202    C    0.89090033    0.80870031    0.82100005    -0.22660000
opls_145-203    C    0.93189979    0.88510005    0.83450004    -0.22880000
opls_145-204    C    0.13649984    0.33139994    0.01460006    -0.24570000
opls_145-205    C    0.18430025    0.39610027    0.03609996    -0.15940000
opls_145-206    C    0.18819989    0.39220009    0.07710006    -0.22780000
opls_700-207    C    0.14439973    0.32369979    0.09649989    0.05300000
opls_145-208    C    0.09670012    0.25900003    0.07489991    -0.22780000
opls_145-209    C    0.09269997    0.26290021    0.03399989    -0.15940000
opls_142-210    C    0.15309997    0.32019987    0.13890004    0.08650000
opls_145-211    C    0.20199976    0.34359983    0.20359990    0.15700000
opls_145-212    C    0.14160029    0.33340014    0.22680010    -0.23520000
opls_145-213    C    0.13910009    0.32919990    0.26679992    -0.23300000
opls_700-214    C    0.20089995    0.33610009    0.28739991    0.04250000
opls_145-215    C    0.26510018    0.34870024    0.26560005    -0.22900000
opls_145-216    C    0.26630022    0.35090029    0.22519988    -0.22550000
opls_701-217    C    0.19879982    0.33310008    0.33180004    0.01300000
opls_145-218    C    0.61430003    0.84659984    0.60456998    -0.24620000
opls_145-219    C    0.55030008    0.84689990    0.61836993    -0.15940000
opls_145-220    C    0.52649983    0.89270000    0.60046994    -0.22780000
opls_700-221    C    0.56679994    0.93839989    0.56857011    0.04680000
opls_145-222    C    0.63080007    0.93800019    0.55476986    -0.22780000
opls_145-223    C    0.65459983    0.89220009    0.57266985    -0.15940000
opls_142-224    C    0.54220010    0.98890014    0.54957004    0.09660000
opls_145-225    C    0.44039976    0.01049975    0.54287009    0.16770000
opls_145-226    C    0.48180017    0.09039997    0.54117008    -0.22550000
opls_145-227    C    0.44849984    0.13179998    0.52616996    -0.21870000
opls_145-228    C    0.37199981    0.09339998    0.51477004    0.04510000
opls_145-229    C    0.33439987    0.01709988    0.51547006    -0.23260000
opls_145-230    C    0.36549985    0.97489991    0.53037009    -0.22880000
opls_145-231    C    0.61009994    0.70059978    0.61177007    -0.24570000
opls_145-232    C    0.53800018    0.67430002    0.59646999    -0.15940000
opls_145-233    C    0.49499992    0.59959985    0.58407007    -0.22780000
opls_700-234    C    0.52410028    0.55100015    0.58707004    0.04930000
opls_145-235    C    0.59620023    0.57720027    0.60246991    -0.22780000
opls_145-236    C    0.63919982    0.65200008    0.61477004    -0.15940000
opls_142-237    C    0.47810019    0.47299992    0.57446995    0.08520000
opls_145-238    C    0.45979993    0.36269991    0.54236995    0.15600000
opls_145-239    C    0.39369974    0.30819984    0.56126993    -0.22880000
opls_145-240    C    0.35140019    0.23540022    0.54666986    -0.23260000
opls_700-241    C    0.37700013    0.21550018    0.51366996    0.04180000
opls_145-242    C    0.44219966    0.26759979    0.49447001    -0.22980000
opls_145-243    C    0.48469993    0.34119994    0.50856993    -0.22760000
opls_145-244    C    0.75829987    0.84549982    0.60497003    -0.24620000
opls_145-245    C    0.82300022    0.91160022    0.61666992    -0.15940000
opls_145-246    C    0.88880005    0.93990018    0.59427013    -0.22780000
opls_700-247    C    0.88990030    0.90210029    0.56016985    0.04880000
opls_145-248    C    0.82519995    0.83599988    0.54857005    -0.22780000
opls_145-249    C    0.75940013    0.80769993    0.57097014    -0.15940000
opls_142-250    C    0.96210003    0.94310004    0.53607005    0.09750000
opls_145-251    C    0.09629994    0.02549979    0.53947007    0.17170000
opls_145-252    C    0.15690021    0.04029999    0.56606999    -0.22550000
opls_145-253    C    0.23059997    0.07509987    0.55197007    -0.23270000
opls_145-254    C    0.24840033    0.09460021    0.51326991    0.03780000
opls_145-255    C    0.19130000    0.08219991    0.48766997    -0.22660000
opls_145-256    C    0.11490017    0.04679991    0.50116996    -0.22880000
opls_145-257    C    0.66859997    0.80510019    0.68126999    -0.24570000
opls_145-258    C    0.60390013    0.78820015    0.70276988    -0.15940000
opls_145-259    C    0.60780003    0.79599995    0.74376999    -0.22780000
opls_700-260    C    0.67629974    0.82069978    0.76317011    0.05300000
opls_145-261    C    0.74100016    0.83770002    0.74157013    -0.22800000
opls_145-262    C    0.73710017    0.82980001    0.70067011    -0.15940000
opls_142-263    C    0.67979992    0.83290023    0.80556997    0.08650000
opls_145-264    C    0.65640022    0.85840003    0.87027012    0.15700000
opls_145-265    C    0.66660004    0.80819984    0.89347002    -0.23510000
opls_145-266    C    0.67079982    0.80989997    0.93347014    -0.23300000
opls_700-267    C    0.66390027    0.86480031    0.95407013    0.04250000
opls_145-268    C    0.65130006    0.91640001    0.93226998    -0.22900000
opls_145-269    C    0.64910029    0.91540020    0.89187010    -0.22550000
opls_701-270    C    0.66690011    0.86569992    0.99846996    0.01300000
opls_145-271    C    0.15340010    0.76770000    0.27123013    -0.24620000
opls_145-272    C    0.15309977    0.70339993    0.28503009    -0.15940000
opls_145-273    C    0.10730007    0.63380018    0.26713009    -0.22790000
opls_700-274    C    0.06160009    0.62840027    0.23522996    0.04680000
opls_145-275    C    0.06199977    0.69279998    0.22143001    -0.22780000
opls_145-276    C    0.10780024    0.76240030    0.23933000    -0.15940000
opls_142-277    C    0.01110015    0.55329984    0.21622989    0.09650000
opls_145-278    C    0.98950004    0.42989977    0.20952994    0.16770000
opls_145-279    C    0.90959998    0.39140013    0.20782993    -0.22550000
opls_145-280    C    0.86820005    0.31669996    0.19283011    -0.21870000
opls_145-281    C    0.90660014    0.27860001    0.18142989    0.04520000
opls_145-282    C    0.98290013    0.31730007    0.18212991    -0.23260000
opls_145-283    C    0.02509984    0.39060016    0.19702994    -0.22880000
opls_145-284    C    0.29939979    0.90949982    0.27842993    -0.24570000
opls_145-285    C    0.32570035    0.86370029    0.26313014    -0.15940000
opls_145-286    C    0.40040004    0.89539995    0.25072993    -0.22780000
opls_700-287    C    0.44900018    0.97310013    0.25372989    0.04930000
opls_145-288    C    0.42279973    0.01899987    0.26913007    -0.22780000
opls_145-289    C    0.34799993    0.98720000    0.28142989    -0.15940000
opls_142-290    C    0.52700005    0.00509985    0.24113010    0.08520000
opls_145-291    C    0.63730001    0.09709975    0.20903010    0.15600000
opls_145-292    C    0.69179979    0.08549998    0.22793008    -0.22880000
opls_145-293    C    0.76459987    0.11599997    0.21333002    -0.23260000
opls_700-294    C    0.78449980    0.16150002    0.18033011    0.04180000
opls_145-295    C    0.73240001    0.17460007    0.16112987    -0.22980000
opls_145-296    C    0.65879977    0.14349996    0.17523008    -0.22760000
opls_145-297    C    0.15450004    0.91279989    0.27162989    -0.24620000
opls_145-298    C    0.08839977    0.91139981    0.28333008    -0.15940000
opls_145-299    C    0.06010009    0.94890020    0.26092999    -0.22780000
opls_700-300    C    0.09789990    0.98780011    0.22683000    0.04890000
opls_145-301    C    0.16400017    0.98920019    0.21522991    -0.22780000
opls_145-302    C    0.19229985    0.95169980    0.23763000    -0.15940000
opls_142-303    C    0.05689989    0.01899987    0.20272991    0.09750000
opls_145-304    C    0.97450020    0.07079999    0.20612992    0.17170000
opls_145-305    C    0.95969984    0.11660009    0.23273014    -0.22550000
opls_145-306    C    0.92489990    0.15550000    0.21862992    -0.23260000
opls_145-307    C    0.90539992    0.15379986    0.17993006    0.03780000
opls_145-308    C    0.91779968    0.10909978    0.15433012    -0.22660000
opls_145-309    C    0.95320004    0.06810004    0.16783011    -0.22880000
opls_145-310    C    0.19489970    0.86349987    0.34793014    -0.24570000
opls_145-311    C    0.21179990    0.81570014    0.36943003    -0.15940000
opls_145-312    C    0.20400008    0.81179996    0.41043014    -0.22780000
opls_700-313    C    0.17929975    0.85559987    0.42982997    0.05300000
opls_145-314    C    0.16230021    0.90329995    0.40822999    -0.22790000
opls_145-315    C    0.17019986    0.90729978    0.36732997    -0.15940000
opls_142-316    C    0.16710011    0.84689990    0.47223012    0.08650000
opls_145-317    C    0.14160002    0.79800014    0.53692997    0.15700000
opls_145-318    C    0.19180016    0.85840003    0.56012988    -0.23510000
opls_145-319    C    0.19010009    0.86090013    0.60013000    -0.23310000
opls_700-320    C    0.13520007    0.79910017    0.62072999    0.04250000
opls_145-321    C    0.08360005    0.73490031    0.59893013    -0.22900000
opls_145-322    C    0.08460026    0.73370008    0.55852996    -0.22550000
opls_701-323    C    0.13430008    0.80120000    0.66513011    0.01300000
opls_146-324    H    0.70699990    0.52329975    0.47300002    0.20980000
opls_146-325    H    0.59069980    0.48370008    0.44300008    0.20980000
opls_146-326    H    0.68920028    0.65780025    0.36679992    0.20980000
opls_146-327    H    0.80539987    0.69739992    0.39679986    0.20980000
opls_144-328    H    0.54109989    0.57289982    0.36790000    0.09850000
opls_146-329    H    0.41550004    0.53170023    0.38320008    0.20970000
opls_146-330    H    0.29289989    0.47709995    0.35729988    0.20980000
opls_146-331    H    0.29389966    0.28529979    0.33879995    0.20970000
opls_146-332    H    0.41340007    0.33580003    0.36520000    0.20980000
opls_146-333    H    0.81169999    0.51849996    0.42780009    0.20980000
opls_146-334    H    0.86470026    0.44670016    0.40720009    0.20980000
opls_146-335    H    0.07099972    0.61569992    0.43779997    0.20980000
opls_146-336    H    0.01790021    0.68750028    0.45839996    0.20980000
opls_144-337    H    0.98149967    0.42689976    0.41390004    0.09850000
opls_146-338    H    0.05640016    0.37769995    0.41749994    0.20980000
opls_146-339    H    0.10600002    0.30659991    0.39230006    0.20980000
opls_146-340    H    0.20460000    0.45790023    0.30520012    0.20980000
opls_146-341    H    0.15330028    0.52900028    0.32910004    0.20980000
opls_146-342    H    0.88540013    0.82220007    0.47270006    0.20960000
opls_146-343    H    0.94800030    0.93200017    0.43539994    0.20980000
opls_146-344    H    0.01519998    0.82600004    0.35909998    0.20980000
opls_146-345    H    0.95259982    0.71619994    0.39649989    0.20980000
opls_144-346    H    0.02860012    0.96539997    0.34239985    0.09850000
opls_146-347    H    0.12009973    0.14699988    0.42589990    0.20980000
opls_146-348    H    0.18399973    0.26949978    0.40310005    0.20980000
opls_146-349    H    0.10549987    0.20229991    0.29460000    0.20980000
opls_146-350    H    0.03879999    0.07669980    0.31660004    0.20980000
opls_146-351    H    0.78640014    0.55810019    0.52310011    0.20980000
opls_146-352    H    0.77979994    0.56449991    0.59149995    0.20980000
opls_146-353    H    0.93260026    0.78680007    0.58790005    0.20980000
opls_146-354    H    0.93919969    0.78039979    0.51960000    0.20980000
opls_144-355    H    0.89220005    0.70900025    0.65229994    0.09850000
opls_146-356    H    0.90060024    0.67080010    0.71379995    0.20980000
opls_146-357    H    0.90380000    0.67829984    0.78040000    0.20980000
opls_146-358    H    0.69220017    0.64429993    0.77910004    0.20980000
opls_146-359    H    0.69140011    0.64289985    0.71150001    0.20980000
opls_146-360    H    0.47669969    0.18369974    0.13966995    0.20980000
opls_146-361    H    0.51630016    0.10699995    0.10967001    0.20970000
opls_146-362    H    0.34220015    0.03140017    0.03347014    0.20980000
opls_146-363    H    0.30260008    0.10799976    0.06347008    0.20980000
opls_144-364    H    0.42710009    0.96820013    0.03456992    0.09850000
opls_146-365    H    0.46830013    0.88380018    0.04987000    0.20980000
opls_146-366    H    0.52290004    0.81579978    0.02397010    0.20970000
opls_146-367    H    0.71470034    0.00860033    0.00546988    0.20980000
opls_146-368    H    0.66419982    0.07759997    0.03186992    0.20980000
opls_146-369    H    0.48149973    0.29319979    0.09447001    0.20960000
opls_146-370    H    0.55329978    0.41799994    0.07387002    0.20980000
opls_146-371    H    0.38429986    0.45529992    0.10446989    0.20980000
opls_146-372    H    0.31250000    0.33040013    0.12506988    0.20980000
opls_144-373    H    0.57310025    0.55460028    0.08056997    0.09850000
opls_146-374    H    0.62229997    0.67870011    0.08416986    0.20980000
opls_146-375    H    0.69340029    0.79940022    0.05896999    0.20980000
opls_146-376    H    0.54209991    0.74669993    0.97187004    0.20980000
opls_146-377    H    0.47099998    0.62430024    0.99576996    0.20980000
opls_146-378    H    0.17780022    0.06320004    0.13936998    0.20980000
opls_146-379    H    0.06800003    0.01599986    0.10206986    0.20980000
opls_146-380    H    0.17400010    0.18919985    0.02576991    0.20980000
opls_146-381    H    0.28379980    0.23640003    0.06317011    0.20970000
opls_144-382    H    0.03460015    0.06320004    0.00907007    0.09850000
opls_146-383    H    0.85300002    0.97310013    0.09257012    0.20980000
opls_146-384    H    0.73049990    0.91450002    0.06976998    0.20980000
opls_146-385    H    0.79770033    0.90320031    0.96126993    0.20970000
opls_146-386    H    0.92329983    0.96209990    0.98326996    0.20980000
opls_146-387    H    0.44189992    0.22830018    0.18977004    0.20980000
opls_146-388    H    0.43549973    0.21529976    0.25816988    0.20980000
opls_146-389    H    0.21320007    0.14580021    0.25456998    0.20980000
opls_146-390    H    0.21959998    0.15880006    0.18626993    0.20980000
opls_144-391    H    0.29099979    0.18319984    0.31896987    0.09850000
opls_146-392    H    0.32919995    0.22979990    0.38046988    0.20980000
opls_146-393    H    0.32169989    0.22550002    0.44706992    0.20980000
opls_146-394    H    0.35570013    0.04789994    0.44576996    0.20980000
opls_146-395    H    0.35709993    0.04850005    0.37816994    0.20980000
opls_146-396    H    0.81630013    0.29299994    0.80633010    0.20970000
opls_146-397    H    0.89300004    0.40929997    0.77632986    0.20980000
opls_146-398    H    0.96859985    0.31080015    0.70013000    0.20970000
opls_146-399    H    0.89199977    0.19459976    0.73012994    0.20980000
opls_144-400    H    0.03180002    0.45890005    0.70123007    0.09850000
opls_146-401    H    0.11620011    0.58450016    0.71652986    0.20980000
opls_146-402    H    0.18420007    0.70710027    0.69062996    0.20980000
opls_146-403    H    0.99140000    0.70609989    0.67213003    0.20980000
opls_146-404    H    0.92240011    0.58660000    0.69853007    0.20970000
opls_146-405    H    0.70680028    0.18830025    0.76112987    0.20980000
opls_146-406    H    0.58199996    0.13529990    0.74052987    0.20980000
opls_146-407    H    0.54469993    0.92900016    0.77113004    0.20980000
opls_146-408    H    0.66960007    0.98210015    0.79173004    0.20980000
opls_144-409    H    0.44540007    0.01849996    0.74723012    0.09850000
opls_146-410    H    0.32129987    0.94359994    0.75083002    0.20980000
opls_146-411    H    0.20059970    0.89399987    0.72563014    0.20980000
opls_146-412    H    0.25330009    0.79539984    0.63852990    0.20980000
opls_146-413    H    0.37570002    0.84670005    0.66243012    0.20970000
opls_146-414    H    0.93680014    0.11459989    0.80603013    0.20980000
opls_146-415    H    0.98400016    0.05199997    0.76873001    0.20980000
opls_146-416    H    0.81079992    0.98480011    0.69243006    0.20980000
opls_146-417    H    0.76359990    0.04740003    0.72982997    0.20980000
opls_144-418    H    0.93680022    0.97139999    0.67572993    0.09850000
opls_146-419    H    0.02689976    0.87990000    0.75922998    0.20980000
opls_146-420    H    0.08549988    0.81600020    0.73643013    0.20980000
opls_146-421    H    0.09679980    0.89449978    0.62793008    0.20980000
opls_146-422    H    0.03790018    0.96120030    0.64993012    0.20980000
opls_146-423    H    0.77170022    0.21360019    0.85642989    0.20970000
opls_146-424    H    0.78470004    0.22019976    0.92483003    0.20980000
opls_146-425    H    0.85419995    0.06740028    0.92123013    0.20980000
opls_146-426    H    0.84119985    0.06080015    0.85293008    0.20980000
opls_144-427    H    0.81680016    0.10779991    0.98563002    0.09850000
opls_146-428    H    0.77019981    0.09940000    0.04713003    0.20980000
opls_146-429    H    0.77450011    0.09620014    0.11373007    0.20980000
opls_146-430    H    0.95210019    0.30780014    0.11243012    0.20980000
opls_146-431    H    0.95149996    0.30860010    0.04483009    0.20980000
opls_146-432    H    0.29300010    0.47670025    0.97300002    0.20980000
opls_146-433    H    0.40930020    0.51629992    0.94300008    0.20980000
opls_146-434    H    0.31079972    0.34219975    0.86679992    0.20980000
opls_146-435    H    0.19460013    0.30260008    0.89679986    0.20980000
opls_144-436    H    0.45890011    0.42710018    0.86790000    0.09850000
opls_146-437    H    0.58449996    0.46829977    0.88320008    0.20980000
opls_146-438    H    0.70710011    0.52290005    0.85729988    0.20980000
opls_146-439    H    0.70610034    0.71470021    0.83879995    0.20980000
opls_146-440    H    0.58659993    0.66419997    0.86520000    0.20980000
opls_146-441    H    0.18830001    0.48150004    0.92780009    0.20980000
opls_146-442    H    0.13529974    0.55329984    0.90720009    0.20980000
opls_146-443    H    0.92900028    0.38430008    0.93779997    0.20980000
opls_146-444    H    0.98210007    0.31250028    0.95839996    0.20980000
opls_144-445    H    0.01850033    0.57310024    0.91390004    0.09850000
opls_146-446    H    0.94359984    0.62230005    0.91749994    0.20980000
opls_146-447    H    0.89399998    0.69340009    0.89230006    0.20980000
opls_146-448    H    0.79540000    0.54209977    0.80520012    0.20980000
opls_146-449    H    0.84670000    0.47100029    0.82910004    0.20980000
opls_146-450    H    0.11459987    0.17779993    0.97270006    0.20980000
opls_146-451    H    0.05199970    0.06799983    0.93539994    0.20980000
opls_146-452    H    0.98480002    0.17399996    0.85909998    0.20980000
opls_146-453    H    0.04740018    0.28380006    0.89649989    0.20980000
opls_144-454    H    0.97139988    0.03460003    0.84239985    0.09850000
opls_146-455    H    0.87990027    0.85300012    0.92589990    0.20970000
opls_146-456    H    0.81600027    0.73050022    0.90310005    0.20980000
opls_146-457    H    0.89450013    0.79770009    0.79460000    0.20970000
opls_146-458    H    0.96120001    0.92330020    0.81660004    0.20980000
opls_146-459    H    0.21359986    0.44189981    0.02310011    0.20970000
opls_146-460    H    0.22020006    0.43550009    0.09149995    0.20980000
opls_146-461    H    0.06739974    0.21319993    0.08790005    0.20980000
opls_146-462    H    0.06080031    0.21960021    0.01960000    0.20980000
opls_144-463    H    0.10779995    0.29099975    0.15229994    0.09850000
opls_146-464    H    0.09939976    0.32919990    0.21379995    0.20980000
opls_146-465    H    0.09620000    0.32170016    0.28040000    0.20970000
opls_146-466    H    0.30779983    0.35570007    0.27910004    0.20980000
opls_146-467    H    0.30859989    0.35710015    0.21150001    0.20980000
opls_146-468    H    0.52330031    0.81630026    0.63966995    0.20980000
opls_146-469    H    0.48369984    0.89300005    0.60967001    0.20970000
opls_146-470    H    0.65779985    0.96859983    0.53347014    0.20980000
opls_146-471    H    0.69739992    0.89200024    0.56347008    0.20980000
opls_144-472    H    0.57289991    0.03179987    0.53456992    0.09850000
opls_146-473    H    0.53169987    0.11619982    0.54987000    0.20980000
opls_146-474    H    0.47709996    0.18420022    0.52397010    0.20980000
opls_146-475    H    0.28529994    0.99140024    0.50546988    0.20980000
opls_146-476    H    0.33580018    0.92240003    0.53186992    0.20980000
opls_146-477    H    0.51850027    0.70680021    0.59447001    0.20980000
opls_146-478    H    0.44670022    0.58200006    0.57387002    0.20980000
opls_146-479    H    0.61570014    0.54470008    0.60446989    0.20980000
opls_146-480    H    0.68750000    0.66959987    0.62506988    0.20980000
opls_144-481    H    0.42690003    0.44540029    0.58056997    0.09850000
opls_146-482    H    0.37770003    0.32129989    0.58416986    0.20980000
opls_146-483    H    0.30659971    0.20059978    0.55896999    0.20980000
opls_146-484    H    0.45790009    0.25330007    0.47187004    0.20980000
opls_146-485    H    0.52900002    0.37569976    0.49576996    0.20980000
opls_146-486    H    0.82219978    0.93679996    0.63936998    0.20980000
opls_146-487    H    0.93199997    0.98400014    0.60206986    0.20970000
opls_146-488    H    0.82599990    0.81080015    0.52576991    0.20980000
opls_146-489    H    0.71620020    0.76359997    0.56317011    0.20980000
opls_144-490    H    0.96539985    0.93679996    0.50907007    0.09850000
opls_146-491    H    0.14699998    0.02689987    0.59257012    0.20980000
opls_146-492    H    0.26950010    0.08549998    0.56976998    0.20980000
opls_146-493    H    0.20229995    0.09680025    0.46126993    0.20980000
opls_146-494    H    0.07670017    0.03790010    0.48326996    0.20980000
opls_146-495    H    0.55810008    0.77169982    0.68977004    0.20980000
opls_146-496    H    0.56450027    0.78470024    0.75816988    0.20980000
opls_146-497    H    0.78679993    0.85419979    0.75456998    0.20980000
opls_146-498    H    0.78040002    0.84119994    0.68626993    0.20980000
opls_144-499    H    0.70900021    0.81680016    0.81896987    0.09850000
opls_146-500    H    0.67080005    0.77020010    0.88046988    0.20980000
opls_146-501    H    0.67830011    0.77449998    0.94706992    0.20980000
opls_146-502    H    0.64429987    0.95210006    0.94576996    0.20980000
opls_146-503    H    0.64290007    0.95149995    0.87816994    0.20980000
opls_146-504    H    0.18369987    0.70700006    0.30633010    0.20980000
opls_146-505    H    0.10699996    0.59070003    0.27632986    0.20980000
opls_146-506    H    0.03140015    0.68919985    0.20013000    0.20980000
opls_146-507    H    0.10800023    0.80540024    0.23012994    0.20980000
opls_144-508    H    0.96819998    0.54109995    0.20123007    0.09840000
opls_146-509    H    0.88379989    0.41549984    0.21652986    0.20980000
opls_146-510    H    0.81579993    0.29289973    0.19062996    0.20980000
opls_146-511    H    0.00860000    0.29390011    0.17213003    0.20980000
opls_146-512    H    0.07759989    0.41340000    0.19853007    0.20980000
opls_146-513    H    0.29320001    0.81170032    0.26112987    0.20980000
opls_146-514    H    0.41800004    0.86470010    0.24052987    0.20980000
opls_146-515    H    0.45530007    0.07099984    0.27113004    0.20980000
opls_146-516    H    0.33039993    0.01789985    0.29173004    0.20980000
opls_144-517    H    0.55459993    0.98150004    0.24723012    0.09850000
opls_146-518    H    0.67870013    0.05640006    0.25083002    0.20980000
opls_146-519    H    0.79940030    0.10600013    0.22563014    0.20980000
opls_146-520    H    0.74669991    0.20460016    0.13852990    0.20970000
opls_146-521    H    0.62429998    0.15329995    0.16243012    0.20980000
opls_146-522    H    0.06319986    0.88540011    0.30603013    0.20980000
opls_146-523    H    0.01599984    0.94800003    0.26873001    0.20980000
opls_146-524    H    0.18920008    0.01519989    0.19243006    0.20980000
opls_146-525    H    0.23640010    0.95259997    0.22982997    0.20980000
opls_144-526    H    0.06319978    0.02860001    0.17572993    0.09850000
opls_146-527    H    0.97310024    0.12010000    0.25922998    0.20980000
opls_146-528    H    0.91450012    0.18399980    0.23643013    0.20980000
opls_146-529    H    0.90320020    0.10550022    0.12793008    0.20980000
opls_146-530    H    0.96210010    0.03880027    0.14993012    0.20980000
opls_146-531    H    0.22829978    0.78639981    0.35642989    0.20980000
opls_146-532    H    0.21529996    0.77980024    0.42483003    0.20980000
opls_146-533    H    0.14580033    0.93260029    0.42123013    0.20980000
opls_146-534    H    0.15880015    0.93919985    0.35293008    0.20980000
opls_144-535    H    0.18319984    0.89220009    0.48563002    0.09850000
opls_146-536    H    0.22980019    0.90060000    0.54713003    0.20980000
opls_146-537    H    0.22549989    0.90379986    0.61373007    0.20980000
opls_146-538    H    0.04789981    0.69219986    0.61243012    0.20980000
opls_146-539    H    0.04850004    0.69139990    0.54483009    0.20970000
opls_750-540    N    0.50820012    0.47159984    0.39079993    -0.37400000
opls_750-541    N    0.06490010    0.50889982    0.38849999    -0.38410000
opls_750-542    N    0.03119999    0.01929993    0.39200009    -0.26220000
opls_750-543    N    0.79320015    0.65230014    0.65939995    -0.29860000
opls_750-544    N    0.52840023    0.03660022    0.05746986    -0.37400000
opls_750-545    N    0.49109965    0.55599979    0.05516991    -0.38430000
opls_750-546    N    0.98070011    0.01189983    0.05867002    -0.26220000
opls_750-547    N    0.34770033    0.14090022    0.32606987    -0.29860000
opls_750-548    N    0.96340014    0.49179994    0.72413001    -0.37400000
opls_750-549    N    0.44399996    0.93509982    0.72183006    -0.38410000
opls_750-550    N    0.98809990    0.96880025    0.72532987    -0.26220000
opls_750-551    N    0.85910030    0.20680021    0.99273002    -0.29860000
opls_750-552    N    0.49179988    0.52840016    0.89079993    -0.37410000
opls_750-553    N    0.93509990    0.49110018    0.88849999    -0.38410000
opls_750-554    N    0.96880001    0.98070007    0.89200009    -0.26220000
opls_750-555    N    0.20679985    0.34769986    0.15939995    -0.29860000
opls_750-556    N    0.47159977    0.96339978    0.55746986    -0.37410000
opls_750-557    N    0.50890035    0.44400021    0.55516991    -0.38410000
opls_750-558    N    0.01929989    0.98810017    0.55867002    -0.26220000
opls_750-559    N    0.65229967    0.85909978    0.82606987    -0.29860000
opls_750-560    N    0.03659986    0.50820006    0.22413001    -0.37400000
opls_750-561    N    0.55600004    0.06490018    0.22183006    -0.38410000
opls_750-562    N    0.01190010    0.03119975    0.22532987    -0.26220000
opls_750-563    N    0.14089970    0.79319979    0.49273002    -0.29860000
