#======================================================================
# Crystal Data Generated By AuToFF
#----------------------------------------------------------------------

data_AuToFF_phase_1

_cell_length_a                         37.2718
_cell_length_b                         37.2718
_cell_length_c                         3.5215
_cell_angle_alpha                      90.00
_cell_angle_beta                       90.00
_cell_angle_gamma                      120.00
_symmetry_space_group_name_H-M_alt     'P 1'
_symmetry_space_group_IT_number        1

loop_
_space_group_symop_operation_xyz
   'x, y, z'

loop_
   _atom_site_label
   _atom_site_type_symbol
   _atom_site_fract_x
   _atom_site_fract_y
   _atom_site_fract_z
   _atom_site_charge
opls_531-0    C    0.29230012    0.64430006    0.53208860    0.35700000
opls_700-1    C    0.24611997    0.61887991    0.53380946    0.00100000
opls_523-2    C    0.36406999    0.58522978    0.44441005    -0.11170000
opls_145-3    C    0.38789986    0.56621981    0.44201051    -0.15510000
opls_145-4    C    0.43017986    0.58859984    0.53505892    0.21390000
opls_145-5    C    0.44724993    0.63074979    0.62383075    -0.15980000
opls_523-6    C    0.42332001    0.64953980    0.62331961    -0.10810000
opls_142-7    C    0.44434997    0.53334977    0.54605140    0.08600000
opls_700-8    C    0.47293001    0.51679997    0.53507028    -0.04210000
opls_166-9    C    0.45757017    0.47360009    0.52730087    0.22910000
opls_145-10    C    0.48400995    0.45726003    0.53202045    -0.21770000
opls_181-11    C    0.60058979    0.59330981    0.39898907    -0.17520000
opls_531-12    C    0.35570014    0.64800007    0.53208860    0.35700000
opls_700-13    C    0.38112010    0.62724001    0.53380946    0.00100000
opls_523-14    C    0.41476993    0.77883986    0.44441005    -0.11170000
opls_145-15    C    0.43378000    0.82167975    0.44201051    -0.15510000
opls_145-16    C    0.41139995    0.84157978    0.53505892    0.21390000
opls_145-17    C    0.36924991    0.81649980    0.62383075    -0.15980000
opls_523-18    C    0.35045995    0.77377981    0.62331961    -0.10810000
opls_142-19    C    0.46664985    0.91099973    0.54605140    0.08600000
opls_700-20    C    0.48319999    0.95613001    0.53507028    -0.04210000
opls_166-21    C    0.52639990    0.98396974    0.52730087    0.22910000
opls_145-22    C    0.54274017    0.02675014    0.53202045    -0.21770000
opls_181-23    C    0.40669009    0.00728012    0.39898907    -0.17520000
opls_531-24    C    0.35200001    0.70769987    0.53208860    0.35700000
opls_700-25    C    0.37275978    0.75387977    0.53380946    0.00100000
opls_523-26    C    0.22115993    0.63593005    0.44441005    -0.11170000
opls_145-27    C    0.17831983    0.61209982    0.44201051    -0.15510000
opls_145-28    C    0.15842003    0.56982006    0.53505892    0.21390000
opls_145-29    C    0.18349985    0.55274979    0.62383075    -0.15980000
opls_523-30    C    0.22622000    0.57667977    0.62331961    -0.10810000
opls_142-31    C    0.08899987    0.55564987    0.54605140    0.08600000
opls_700-32    C    0.04387001    0.52707002    0.53507028    -0.04210000
opls_166-33    C    0.01603004    0.54242986    0.52730087    0.22910000
opls_145-34    C    0.97324988    0.51598983    0.53202045    -0.21770000
opls_181-35    C    0.99272013    0.39941007    0.39898907    -0.17520000
opls_531-36    C    0.70769988    0.35569994    0.53208860    0.35700000
opls_700-37    C    0.75388003    0.38112009    0.53380946    0.00100000
opls_523-38    C    0.63592986    0.41476991    0.44441005    -0.11170000
opls_145-39    C    0.61209999    0.43377988    0.44201051    -0.15510000
opls_145-40    C    0.56981998    0.41139985    0.53505892    0.21390000
opls_145-41    C    0.55274991    0.36924990    0.62383075    -0.15980000
opls_523-42    C    0.57667984    0.35045989    0.62331961    -0.10810000
opls_142-43    C    0.55564988    0.46664992    0.54605140    0.08600000
opls_700-44    C    0.52706999    0.48320003    0.53507028    -0.04210000
opls_166-45    C    0.54242983    0.52639991    0.52730087    0.22910000
opls_145-46    C    0.51599005    0.54273997    0.53202045    -0.21770000
opls_181-47    C    0.39941006    0.40668988    0.39898907    -0.17520000
opls_531-48    C    0.64429986    0.35199993    0.53208860    0.35700000
opls_700-49    C    0.61887990    0.37275999    0.53380946    0.00100000
opls_523-50    C    0.58522992    0.22115983    0.44441005    -0.11170000
opls_145-51    C    0.56621984    0.17831994    0.44201051    -0.15510000
opls_145-52    C    0.58859989    0.15841991    0.53505892    0.21390000
opls_145-53    C    0.63074994    0.18349989    0.62383075    -0.15980000
opls_523-54    C    0.64953990    0.22621988    0.62331961    -0.10810000
opls_142-55    C    0.53334999    0.08899996    0.54605140    0.08600000
opls_700-56    C    0.51680001    0.04386999    0.53507028    -0.04210000
opls_166-57    C    0.47359995    0.01602995    0.52730087    0.22910000
opls_145-58    C    0.45725983    0.97324986    0.53202045    -0.21770000
opls_181-59    C    0.59330991    0.99271988    0.39898907    -0.17520000
opls_531-60    C    0.64799983    0.29229982    0.53208860    0.35700000
opls_700-61    C    0.62724006    0.24611992    0.53380946    0.00100000
opls_523-62    C    0.77884007    0.36406995    0.44441005    -0.11170000
opls_145-63    C    0.82168001    0.38789987    0.44201051    -0.15510000
opls_145-64    C    0.84157997    0.43017994    0.53505892    0.21390000
opls_145-65    C    0.81649999    0.44724990    0.62383075    -0.15980000
opls_523-66    C    0.77377985    0.42331992    0.62331961    -0.10810000
opls_142-67    C    0.91099997    0.44434982    0.54605140    0.08600000
opls_700-68    C    0.95612999    0.47292998    0.53507028    -0.04210000
opls_166-69    C    0.98396980    0.45756983    0.52730087    0.22910000
opls_145-70    C    0.02674997    0.48400986    0.53202045    -0.21770000
opls_181-71    C    0.00727987    0.60058993    0.39898907    -0.17520000
opls_520-72    N    0.31399992    0.62411005    0.53200909    -0.40770000
opls_750-73    N    0.45781983    0.57285987    0.52734914    -0.27760000
opls_520-74    N    0.37589000    0.68988978    0.53200909    -0.40780000
opls_750-75    N    0.42713997    0.88495997    0.52734914    -0.27760000
opls_520-76    N    0.31010992    0.68599986    0.53200909    -0.40770000
opls_750-77    N    0.11504004    0.54217985    0.52734914    -0.27760000
opls_520-78    N    0.68600008    0.37588995    0.53200909    -0.40770000
opls_750-79    N    0.54218001    0.42713982    0.52734914    -0.27760000
opls_520-80    N    0.62410984    0.31010991    0.53200909    -0.40770000
opls_750-81    N    0.57286003    0.11504003    0.52734914    -0.27760000
opls_520-82    N    0.68988993    0.31399983    0.53200909    -0.40770000
opls_750-83    N    0.88495980    0.45781984    0.52734914    -0.27760000
opls_179-84    O    0.41484996    0.44858981    0.51597047    -0.16350000
opls_179-85    O    0.55140990    0.96625972    0.51597047    -0.16350000
opls_179-86    O    0.03373983    0.58514985    0.51597047    -0.16360000
opls_179-87    O    0.58514988    0.55140988    0.51597047    -0.16350000
opls_179-88    O    0.44858995    0.03373997    0.51597047    -0.16350000
opls_179-89    O    0.96626002    0.41484984    0.51597047    -0.16350000
opls_526-90    H    0.33121992    0.56727997    0.37025983    0.11840000
opls_146-91    H    0.37348001    0.53359979    0.36161011    0.11400000
opls_146-92    H    0.48006002    0.64881981    0.69783047    0.11530000
opls_526-93    H    0.43730989    0.68239993    0.69388045    0.10870000
opls_144-94    H    0.41087996    0.50982006    0.57649013    0.04940000
opls_146-95    H    0.47189003    0.42388996    0.53555019    0.11340000
opls_185-96    H    0.58319005    0.59473988    0.15332103    0.10570000
opls_185-97    H    0.63322997    0.60615001    0.32164135    0.11880000
opls_185-98    H    0.59857990    0.61240994    0.62853046    0.08780000
opls_526-99    H    0.43271978    0.76393977    0.37025983    0.11840000
opls_146-100    H    0.46640000    0.83987988    0.36161011    0.11400000
opls_146-101    H    0.35118014    0.83124003    0.69783047    0.11530000
opls_526-102    H    0.31760003    0.75490987    0.69388045    0.10870000
opls_144-103    H    0.49018005    0.90105994    0.57649013    0.04940000
opls_146-104    H    0.57610991    0.04800000    0.53555019    0.11350000
opls_185-105    H    0.40525996    0.98845015    0.15332103    0.10570000
opls_185-106    H    0.39385009    0.02708009    0.32164135    0.11880000
opls_185-107    H    0.38758995    0.98616998    0.62853046    0.08780000
opls_526-108    H    0.23605987    0.66877995    0.37025983    0.11840000
opls_146-109    H    0.16012010    0.62652002    0.36161011    0.11400000
opls_146-110    H    0.16875995    0.51993985    0.69783047    0.11530000
opls_526-111    H    0.24508992    0.56268989    0.69388045    0.10870000
opls_144-112    H    0.09893999    0.58912001    0.57649013    0.04940000
opls_146-113    H    0.95200006    0.52811004    0.53555019    0.11340000
opls_185-114    H    0.01154999    0.41680998    0.15332103    0.10570000
opls_185-115    H    0.97291994    0.36676990    0.32164135    0.11880000
opls_185-116    H    0.01383015    0.40142009    0.62853046    0.08780000
opls_526-117    H    0.66878008    0.43272003    0.37025983    0.11840000
opls_146-118    H    0.62651983    0.46639990    0.36161011    0.11400000
opls_146-119    H    0.51993982    0.35117988    0.69783047    0.11530000
opls_526-120    H    0.56269011    0.31760007    0.69388045    0.10870000
opls_144-121    H    0.58912004    0.49017994    0.57649013    0.04940000
opls_146-122    H    0.52810997    0.57611004    0.53555019    0.11340000
opls_185-123    H    0.41680980    0.40525981    0.15332103    0.10570000
opls_185-124    H    0.36677003    0.39384999    0.32164135    0.11880000
opls_185-125    H    0.40142010    0.38759006    0.62853046    0.08780000
opls_526-126    H    0.56728006    0.23605992    0.37025983    0.11840000
opls_146-127    H    0.53360000    0.16012012    0.36161011    0.11400000
opls_146-128    H    0.64881986    0.16875997    0.69783047    0.11530000
opls_526-129    H    0.68239981    0.24508982    0.69388045    0.10870000
opls_144-130    H    0.50981995    0.09894006    0.57649013    0.04940000
opls_146-131    H    0.42389009    0.95200000    0.53555019    0.11350000
opls_185-132    H    0.59474004    0.01154985    0.15332103    0.10570000
opls_185-133    H    0.60614991    0.97291991    0.32164135    0.11880000
opls_185-134    H    0.61240990    0.01382971    0.62853046    0.08780000
opls_526-135    H    0.76394013    0.33122005    0.37025983    0.11840000
opls_146-136    H    0.83987990    0.37347998    0.36161011    0.11400000
opls_146-137    H    0.83123990    0.48005984    0.69783047    0.11530000
opls_526-138    H    0.75490992    0.43730980    0.69388045    0.10870000
opls_144-139    H    0.90106001    0.41087999    0.57649013    0.04940000
opls_146-140    H    0.04799994    0.47188996    0.53555019    0.11340000
opls_185-141    H    0.98845001    0.58319002    0.15332103    0.10570000
opls_185-142    H    0.02707991    0.63322979    0.32164135    0.11880000
opls_185-143    H    0.98616985    0.59857991    0.62853046    0.08780000
