#======================================================================
# Crystal Data Generated By AuToFF
#----------------------------------------------------------------------

data_AuToFF_phase_1

_cell_length_a                         29.9319
_cell_length_b                         29.9319
_cell_length_c                         6.5682
_cell_angle_alpha                      90.00
_cell_angle_beta                       90.00
_cell_angle_gamma                      90.00
_symmetry_space_group_name_H-M_alt     'P 1'
_symmetry_space_group_IT_number        1

loop_
_space_group_symop_operation_xyz
   'x, y, z'

loop_
   _atom_site_label
   _atom_site_type_symbol
   _atom_site_fract_x
   _atom_site_fract_y
   _atom_site_fract_z
   _atom_site_charge
opls_145-0    C    0.54435001    0.96136998    0.46619013    -0.07460000
opls_145-1    C    0.41867005    0.04232007    0.33755976    -0.11090000
opls_145-2    C    0.38407986    0.01110989    0.34797052    0.23280000
opls_145-3    C    0.38673990    0.97604997    0.48901069    -0.11100000
opls_145-4    C    0.42364000    0.97246984    0.61738071    -0.07460000
opls_700-5    C    0.45869992    0.00376989    0.60918060    0.07530000
opls_142-6    C    0.31521988    0.98588997    0.20267958    0.01610000
opls_166-7    C    0.24513011    0.95668000    0.04040985    0.11240000
opls_145-8    C    0.27652003    0.02744998    0.92875065    -0.09150000
opls_700-9    C    0.27790986    0.99043997    0.05887001    -0.03090000
opls_145-10    C    0.04134986    0.46190987    0.96304010    -0.09310000
opls_145-11    C    0.92331994    0.54217006    0.82689930    -0.11400000
opls_145-12    C    0.88747991    0.51258991    0.83516945    0.23490000
opls_145-13    C    0.88706998    0.47858004    0.98206967    -0.13390000
opls_145-14    C    0.92268984    0.47442996    0.11851040    -0.07660000
opls_700-15    C    0.95908011    0.50420989    0.11124966    0.07530000
opls_142-16    C    0.81783014    0.49220998    0.67636948    0.01610000
opls_145-17    C    0.74416993    0.47589996    0.53254012    -0.07610000
opls_166-18    C    0.79271012    0.52556002    0.34070065    0.32300000
opls_700-19    C    0.78471998    0.49832988    0.51305076    -0.03460000
opls_145-20    C    0.04153996    0.04016016    0.71691940    -0.09300000
opls_145-21    C    0.95282992    0.92484005    0.57977985    -0.11000000
opls_145-22    C    0.98192998    0.88852996    0.58129016    0.23500000
opls_145-23    C    0.01670993    0.88711007    0.72434000    -0.13390000
opls_145-24    C    0.02235007    0.92226989    0.86182973    -0.07670000
opls_700-25    C    0.99333988    0.95933001    0.85996011    0.07470000
opls_142-26    C    0.00407993    0.82200996    0.40404982    0.01610000
opls_145-27    C    0.03102008    0.75636996    0.22015012    -0.10860000
opls_166-28    C    0.96048998    0.78819988    0.11047928    0.08340000
opls_700-29    C    0.99769009    0.78850992    0.24297068    -0.03100000
opls_145-30    C    0.53865007    0.54174008    0.21087056    -0.07470000
opls_145-31    C    0.45706988    0.42228993    0.07713072    -0.11080000
opls_145-32    C    0.48627986    0.38609009    0.08984958    0.23280000
opls_145-33    C    0.51975985    0.38601993    0.23942937    -0.13380000
opls_145-34    C    0.52403990    0.42205005    0.37266983    -0.07460000
opls_700-35    C    0.49499998    0.45891006    0.36048994    0.07840000
opls_142-36    C    0.50768010    0.31562012    0.94933011    0.01610000
opls_166-37    C    0.52950999    0.24034993    0.81216010    0.32660000
opls_145-38    C    0.47962007    0.28842005    0.61740964    -0.09180000
opls_700-39    C    0.50584995    0.28109007    0.79058951    -0.05800000
opls_182-40    C    0.15854991    0.91796010    0.03801041    0.00650000
opls_182-41    C    0.25686007    0.92182989    0.34834049    0.00650000
opls_182-42    C    0.59303987    0.16775013    0.70962973    -0.01850000
opls_182-43    C    0.58418009    0.26164995    0.05788039    -0.01800000
opls_182-44    C    0.15724996    0.87395989    0.05320027    0.00380000
opls_182-45    C    0.25998015    0.88066010    0.41937060    -0.00290000
opls_182-46    C    0.60678006    0.13571006    0.87646996    -0.01770000
opls_182-47    C    0.62901988    0.23946993    0.09396943    -0.01810000
opls_182-48    C    0.15151995    0.87480013    0.38875034    -0.01830000
opls_182-49    C    0.19502003    0.84915993    0.41397034    -0.01750000
opls_182-50    C    0.65474995    0.13659006    0.13229956    -0.01750000
opls_182-51    C    0.66393012    0.18154010    0.23201029    -0.01750000
opls_145-52    C    0.45564999    0.03863002    0.46619013    -0.07460000
opls_145-53    C    0.58132995    0.95767993    0.33755976    -0.11090000
opls_145-54    C    0.61592014    0.98889011    0.34797052    0.23280000
opls_145-55    C    0.61326010    0.02395003    0.48901069    -0.11100000
opls_145-56    C    0.57636000    0.02753016    0.61738071    -0.07460000
opls_700-57    C    0.54130008    0.99623011    0.60918060    0.07530000
opls_142-58    C    0.68478012    0.01411003    0.20267958    0.01610000
opls_166-59    C    0.75486989    0.04332000    0.04040985    0.11240000
opls_145-60    C    0.72347997    0.97255002    0.92875065    -0.09150000
opls_700-61    C    0.72209014    0.00956003    0.05887001    -0.03090000
opls_145-62    C    0.95865014    0.53809013    0.96304010    -0.09310000
opls_145-63    C    0.07668006    0.45782994    0.82689930    -0.11400000
opls_145-64    C    0.11252009    0.48741009    0.83516945    0.23490000
opls_145-65    C    0.11293002    0.52141996    0.98206967    -0.13390000
opls_145-66    C    0.07731016    0.52557004    0.11851040    -0.07660000
opls_700-67    C    0.04091989    0.49579011    0.11124966    0.07530000
opls_142-68    C    0.18216986    0.50779002    0.67636948    0.01610000
opls_145-69    C    0.25583007    0.52410004    0.53254012    -0.07610000
opls_166-70    C    0.20728988    0.47443998    0.34070065    0.32300000
opls_700-71    C    0.21528002    0.50167012    0.51305076    -0.03460000
opls_145-72    C    0.95846004    0.95983984    0.71691940    -0.09300000
opls_145-73    C    0.04717008    0.07515995    0.57977985    -0.11000000
opls_145-74    C    0.01807002    0.11147004    0.58129016    0.23500000
opls_145-75    C    0.98329007    0.11288993    0.72434000    -0.13390000
opls_145-76    C    0.97764993    0.07773011    0.86182973    -0.07670000
opls_700-77    C    0.00666012    0.04066999    0.85996011    0.07470000
opls_142-78    C    0.99592007    0.17799004    0.40404982    0.01610000
opls_145-79    C    0.96897992    0.24363004    0.22015012    -0.10860000
opls_166-80    C    0.03951002    0.21180012    0.11047928    0.08340000
opls_700-81    C    0.00230991    0.21149008    0.24297068    -0.03100000
opls_145-82    C    0.46134993    0.45825992    0.21087056    -0.07470000
opls_145-83    C    0.54293012    0.57771007    0.07713072    -0.11080000
opls_145-84    C    0.51372014    0.61390991    0.08984958    0.23280000
opls_145-85    C    0.48024015    0.61398007    0.23942937    -0.13380000
opls_145-86    C    0.47596010    0.57794995    0.37266983    -0.07460000
opls_700-87    C    0.50500002    0.54108994    0.36048994    0.07840000
opls_142-88    C    0.49231990    0.68437988    0.94933011    0.01610000
opls_166-89    C    0.47049001    0.75965007    0.81216010    0.32660000
opls_145-90    C    0.52037993    0.71157995    0.61740964    -0.09180000
opls_700-91    C    0.49415005    0.71890993    0.79058951    -0.05800000
opls_182-92    C    0.84145009    0.08203990    0.03801041    0.00650000
opls_182-93    C    0.74313993    0.07817011    0.34834049    0.00650000
opls_182-94    C    0.40696013    0.83224987    0.70962973    -0.01850000
opls_182-95    C    0.41581991    0.73835005    0.05788039    -0.01800000
opls_182-96    C    0.84275004    0.12604011    0.05320027    0.00380000
opls_182-97    C    0.74001985    0.11933990    0.41937060    -0.00290000
opls_182-98    C    0.39321994    0.86428994    0.87646996    -0.01770000
opls_182-99    C    0.37098012    0.76053007    0.09396943    -0.01810000
opls_182-100    C    0.84848005    0.12519987    0.38875034    -0.01830000
opls_182-101    C    0.80497997    0.15084007    0.41397034    -0.01750000
opls_182-102    C    0.34525005    0.86340994    0.13229956    -0.01750000
opls_182-103    C    0.33606988    0.81845990    0.23201029    -0.01750000
opls_145-104    C    0.96136998    0.45564999    0.53380987    -0.07460000
opls_145-105    C    0.04232007    0.58132995    0.66244024    -0.11090000
opls_145-106    C    0.01110989    0.61592014    0.65202948    0.23280000
opls_145-107    C    0.97604997    0.61326010    0.51098931    -0.11100000
opls_145-108    C    0.97246984    0.57636000    0.38261929    -0.07460000
opls_700-109    C    0.00376989    0.54130008    0.39081940    0.07530000
opls_142-110    C    0.98588997    0.68478012    0.79732042    0.01610000
opls_166-111    C    0.95668000    0.75486989    0.95959015    0.11240000
opls_145-112    C    0.02744998    0.72347997    0.07124935    -0.09150000
opls_700-113    C    0.99043997    0.72209014    0.94112999    -0.03090000
opls_145-114    C    0.46190987    0.95865014    0.03695990    -0.09310000
opls_145-115    C    0.54217006    0.07668006    0.17310070    -0.11400000
opls_145-116    C    0.51258991    0.11252009    0.16483055    0.23490000
opls_145-117    C    0.47858004    0.11293002    0.01793033    -0.13390000
opls_145-118    C    0.47442996    0.07731016    0.88148960    -0.07660000
opls_700-119    C    0.50420989    0.04091989    0.88875034    0.07530000
opls_142-120    C    0.49220998    0.18216986    0.32363052    0.01610000
opls_145-121    C    0.47589996    0.25583007    0.46745988    -0.07610000
opls_166-122    C    0.52556002    0.20728988    0.65929935    0.32300000
opls_700-123    C    0.49832988    0.21528002    0.48694924    -0.03460000
opls_145-124    C    0.04016016    0.95846004    0.28308060    -0.09300000
opls_145-125    C    0.92484005    0.04717008    0.42022015    -0.11000000
opls_145-126    C    0.88852996    0.01807002    0.41870984    0.23500000
opls_145-127    C    0.88711007    0.98329007    0.27566000    -0.13390000
opls_145-128    C    0.92226989    0.97764993    0.13817027    -0.07670000
opls_700-129    C    0.95933001    0.00666012    0.14003989    0.07470000
opls_142-130    C    0.82200996    0.99592007    0.59595018    0.01610000
opls_145-131    C    0.75636996    0.96897992    0.77984988    -0.10860000
opls_166-132    C    0.78819988    0.03951002    0.88952072    0.08340000
opls_700-133    C    0.78850992    0.00230991    0.75702932    -0.03100000
opls_145-134    C    0.54174008    0.46134993    0.78912944    -0.07470000
opls_145-135    C    0.42228993    0.54293012    0.92286928    -0.11080000
opls_145-136    C    0.38609009    0.51372014    0.91015042    0.23280000
opls_145-137    C    0.38601993    0.48024015    0.76057063    -0.13380000
opls_145-138    C    0.42205005    0.47596010    0.62733017    -0.07460000
opls_700-139    C    0.45891006    0.50500002    0.63951006    0.07840000
opls_142-140    C    0.31562012    0.49231990    0.05066989    0.01610000
opls_166-141    C    0.24034993    0.47049001    0.18783990    0.32660000
opls_145-142    C    0.28842005    0.52037993    0.38259036    -0.09180000
opls_700-143    C    0.28109007    0.49415005    0.20941049    -0.05800000
opls_182-144    C    0.91796010    0.84145009    0.96198959    0.00650000
opls_182-145    C    0.92182989    0.74313993    0.65165951    0.00650000
opls_182-146    C    0.16775013    0.40696013    0.29037027    -0.01850000
opls_182-147    C    0.26164995    0.41581991    0.94211961    -0.01800000
opls_182-148    C    0.87395989    0.84275004    0.94679973    0.00380000
opls_182-149    C    0.88066010    0.74001985    0.58062940    -0.00290000
opls_182-150    C    0.13571006    0.39321994    0.12353004    -0.01770000
opls_182-151    C    0.23946993    0.37098012    0.90603057    -0.01810000
opls_182-152    C    0.87480013    0.84848005    0.61124966    -0.01830000
opls_182-153    C    0.84915993    0.80497997    0.58602966    -0.01750000
opls_182-154    C    0.13659006    0.34525005    0.86770044    -0.01750000
opls_182-155    C    0.18154010    0.33606988    0.76798971    -0.01750000
opls_145-156    C    0.03863002    0.54435001    0.53380987    -0.07460000
opls_145-157    C    0.95767993    0.41867005    0.66244024    -0.11100000
opls_145-158    C    0.98889011    0.38407986    0.65202948    0.23280000
opls_145-159    C    0.02395003    0.38673990    0.51098931    -0.11100000
opls_145-160    C    0.02753016    0.42364000    0.38261929    -0.07460000
opls_700-161    C    0.99623011    0.45869992    0.39081940    0.07530000
opls_142-162    C    0.01411003    0.31521988    0.79732042    0.01610000
opls_166-163    C    0.04332000    0.24513011    0.95959015    0.11240000
opls_145-164    C    0.97255002    0.27652003    0.07124935    -0.09150000
opls_700-165    C    0.00956003    0.27790986    0.94112999    -0.03090000
opls_145-166    C    0.53809013    0.04134986    0.03695990    -0.09310000
opls_145-167    C    0.45782994    0.92331994    0.17310070    -0.11400000
opls_145-168    C    0.48741009    0.88747991    0.16483055    0.23490000
opls_145-169    C    0.52141996    0.88706998    0.01793033    -0.13390000
opls_145-170    C    0.52557004    0.92268984    0.88148960    -0.07670000
opls_700-171    C    0.49579011    0.95908011    0.88875034    0.07530000
opls_142-172    C    0.50779002    0.81783014    0.32363052    0.01610000
opls_145-173    C    0.52410004    0.74416993    0.46745988    -0.07610000
opls_166-174    C    0.47443998    0.79271012    0.65929935    0.32290000
opls_700-175    C    0.50167012    0.78471998    0.48694924    -0.03460000
opls_145-176    C    0.95983984    0.04153996    0.28308060    -0.09300000
opls_145-177    C    0.07515995    0.95282992    0.42022015    -0.11000000
opls_145-178    C    0.11147004    0.98192998    0.41870984    0.23500000
opls_145-179    C    0.11288993    0.01670993    0.27566000    -0.13390000
opls_145-180    C    0.07773011    0.02235007    0.13817027    -0.07670000
opls_700-181    C    0.04066999    0.99333988    0.14003989    0.07470000
opls_142-182    C    0.17799004    0.00407993    0.59595018    0.01610000
opls_145-183    C    0.24363004    0.03102008    0.77984988    -0.10860000
opls_166-184    C    0.21180012    0.96048998    0.88952072    0.08340000
opls_700-185    C    0.21149008    0.99769009    0.75702932    -0.03100000
opls_145-186    C    0.45825992    0.53865007    0.78912944    -0.07470000
opls_145-187    C    0.57771007    0.45706988    0.92286928    -0.11080000
opls_145-188    C    0.61390991    0.48627986    0.91015042    0.23280000
opls_145-189    C    0.61398007    0.51975985    0.76057063    -0.13380000
opls_145-190    C    0.57794995    0.52403990    0.62733017    -0.07460000
opls_700-191    C    0.54108994    0.49499998    0.63951006    0.07840000
opls_142-192    C    0.68437988    0.50768010    0.05066989    0.01610000
opls_166-193    C    0.75965007    0.52950999    0.18783990    0.32660000
opls_145-194    C    0.71157995    0.47962007    0.38259036    -0.09180000
opls_700-195    C    0.71890993    0.50584995    0.20941049    -0.05800000
opls_182-196    C    0.08203990    0.15854991    0.96198959    0.00650000
opls_182-197    C    0.07817011    0.25686007    0.65165951    0.00650000
opls_182-198    C    0.83224987    0.59303987    0.29037027    -0.01850000
opls_182-199    C    0.73835005    0.58418009    0.94211961    -0.01800000
opls_182-200    C    0.12604011    0.15724996    0.94679973    0.00380000
opls_182-201    C    0.11933990    0.25998015    0.58062940    -0.00290000
opls_182-202    C    0.86428994    0.60678006    0.12353004    -0.01770000
opls_182-203    C    0.76053007    0.62901988    0.90603057    -0.01810000
opls_182-204    C    0.12519987    0.15151995    0.61124966    -0.01830000
opls_182-205    C    0.15084007    0.19502003    0.58602966    -0.01750000
opls_182-206    C    0.86340994    0.65474995    0.86770044    -0.01750000
opls_182-207    C    0.81845990    0.66393012    0.76798971    -0.01750000
opls_701-208    C    0.50000000    0.50000000    0.50000000    0.01120000
opls_701-209    C    0.00000000    0.00000000    0.00000000    0.01070000
opls_701-210    C    0.50000000    0.00000000    0.74787004    0.01050000
opls_701-211    C    0.00000000    0.50000000    0.25212996    0.01050000
opls_750-212    N    0.34719012    0.01505016    0.21075942    -0.28280000
opls_750-213    N    0.85310989    0.51706006    0.68630980    -0.23970000
opls_750-214    N    0.97646992    0.85478002    0.42965957    -0.24050000
opls_750-215    N    0.48310999    0.35119989    0.94174964    -0.24060000
opls_750-216    N    0.65280988    0.98494984    0.21075942    -0.28280000
opls_750-217    N    0.14689011    0.48293994    0.68630980    -0.23990000
opls_750-218    N    0.02353008    0.14521998    0.42965957    -0.24050000
opls_750-219    N    0.51689001    0.64880011    0.94174964    -0.24050000
opls_750-220    N    0.01505016    0.65280988    0.78924058    -0.28290000
opls_750-221    N    0.51706006    0.14689011    0.31369020    -0.23970000
opls_750-222    N    0.85478002    0.02353008    0.57034043    -0.24050000
opls_750-223    N    0.35119989    0.51689001    0.05825036    -0.24050000
opls_750-224    N    0.98494984    0.34719012    0.78924058    -0.28280000
opls_750-225    N    0.48293994    0.85310989    0.31369020    -0.23980000
opls_750-226    N    0.14521998    0.97646992    0.57034043    -0.24050000
opls_750-227    N    0.64880011    0.48310999    0.05825036    -0.24050000
opls_179-228    O    0.18099987    0.92577985    0.86502999    -0.14030000
opls_179-229    O    0.24747009    0.91650012    0.15005024    -0.14710000
opls_179-230    O    0.54603016    0.16542986    0.68187936    -0.16650000
opls_179-231    O    0.55234983    0.22937000    0.99222009    -0.17720000
opls_180-232    O    0.12931989    0.86498986    0.20455071    -0.12190000
opls_180-233    O    0.22407999    0.87481984    0.53291008    -0.12230000
opls_180-234    O    0.65190015    0.14169999    0.92136963    -0.11040000
opls_180-235    O    0.62459015    0.20649007    0.24308030    -0.13000000
opls_179-236    O    0.81900013    0.07422015    0.86502999    -0.14030000
opls_179-237    O    0.75252991    0.08349988    0.15005024    -0.14710000
opls_179-238    O    0.45396984    0.83457014    0.68187936    -0.16650000
opls_179-239    O    0.44765017    0.77063000    0.99222009    -0.17720000
opls_180-240    O    0.87068011    0.13501014    0.20455071    -0.12190000
opls_180-241    O    0.77592001    0.12518016    0.53291008    -0.12220000
opls_180-242    O    0.34809985    0.85830001    0.92136963    -0.11040000
opls_180-243    O    0.37540985    0.79350993    0.24308030    -0.13000000
opls_179-244    O    0.92577985    0.81900013    0.13497001    -0.14030000
opls_179-245    O    0.91650012    0.75252991    0.84994976    -0.14710000
opls_179-246    O    0.16542986    0.45396984    0.31812064    -0.16650000
opls_179-247    O    0.22937000    0.44765017    0.00777991    -0.17720000
opls_180-248    O    0.86498986    0.87068011    0.79544929    -0.12190000
opls_180-249    O    0.87481984    0.77592001    0.46708992    -0.12220000
opls_180-250    O    0.14169999    0.34809985    0.07863037    -0.11040000
opls_180-251    O    0.20649007    0.37540985    0.75691970    -0.13010000
opls_179-252    O    0.07422015    0.18099987    0.13497001    -0.14030000
opls_179-253    O    0.08349988    0.24747009    0.84994976    -0.14710000
opls_179-254    O    0.83457014    0.54603016    0.31812064    -0.16650000
opls_179-255    O    0.77063000    0.55234983    0.00777991    -0.17720000
opls_180-256    O    0.13501014    0.12931989    0.79544929    -0.12190000
opls_180-257    O    0.12518016    0.22407999    0.46708992    -0.12220000
opls_180-258    O    0.85830001    0.65190015    0.07863037    -0.11040000
opls_180-259    O    0.79350993    0.62459015    0.75691970    -0.13000000
opls_146-260    H    0.69748997    0.94491997    0.94410036    0.04990000
opls_146-261    H    0.75688012    0.93845997    0.67604062    0.04990000
opls_146-262    H    0.85727000    0.95963003    0.27159952    0.04990000
opls_146-263    H    0.92121015    0.94927987    0.02245973    0.04990000
opls_146-264    H    0.98921986    0.06574992    0.28801955    0.04990000
opls_146-265    H    0.45428990    0.26249987    0.32778996    0.04990000
opls_146-266    H    0.46101985    0.32137987    0.59813039    0.04990000
opls_144-267    H    0.31655992    0.95614010    0.31089035    0.02940000
opls_146-268    H    0.51639989    0.93562988    0.45413051    0.04990000
opls_146-269    H    0.41681985    0.07099984    0.22365945    0.04990000
opls_146-270    H    0.35863009    0.95044017    0.49853993    0.04990000
opls_146-271    H    0.42578988    0.94383985    0.73145002    0.04990000
opls_146-272    H    0.01241986    0.43722985    0.95313023    0.04990000
opls_146-273    H    0.92380003    0.56992005    0.70804939    0.04990000
opls_146-274    H    0.85772002    0.45437009    0.99010992    0.04990000
opls_146-275    H    0.92204003    0.44652996    0.23662038    0.04990000
opls_144-276    H    0.81200993    0.46507004    0.79523005    0.02940000
opls_146-277    H    0.92415984    0.92603009    0.46566944    0.04990000
opls_144-278    H    0.03402991    0.81953000    0.51068938    0.02940000
opls_146-279    H    0.56295992    0.51256987    0.19751073    0.04990000
opls_146-280    H    0.42956010    0.42256990    0.95711001    0.04990000
opls_146-281    H    0.54357993    0.35644012    0.25235986    0.04990000
opls_146-282    H    0.55135992    0.42190005    0.49359946    0.04990000
opls_144-283    H    0.53164985    0.31037990    0.08208033    0.02940000
opls_185-284    H    0.12325011    0.93205009    0.02697999    0.04550000
opls_185-285    H    0.17711004    0.93383013    0.17120977    0.04550000
opls_185-286    H    0.22858990    0.94045984    0.42782954    0.04550000
opls_185-287    H    0.28956999    0.94099005    0.36508024    0.04550000
opls_185-288    H    0.60285014    0.20321998    0.75434975    0.04550000
opls_185-289    H    0.61052990    0.15824989    0.56163941    0.04550000
opls_185-290    H    0.57213007    0.27770005    0.20540026    0.04550000
opls_185-291    H    0.58803985    0.28848987    0.93599007    0.04550000
opls_185-292    H    0.19193001    0.86045991    0.09019975    0.04550000
opls_185-293    H    0.14482007    0.85910985    0.90374075    0.04540000
opls_185-294    H    0.29140014    0.87701984    0.51608051    0.04550000
opls_185-295    H    0.26089991    0.85611004    0.28674979    0.04550000
opls_185-296    H    0.60097989    0.09991013    0.82342955    0.04550000
opls_185-297    H    0.58599989    0.14241996    0.01869005    0.04550000
opls_185-298    H    0.65420003    0.26556984    0.14695959    0.04550000
opls_185-299    H    0.64122993    0.22360993    0.94630949    0.04550000
opls_185-300    H    0.12844991    0.86632990    0.52134070    0.04550000
opls_185-301    H    0.15978003    0.91196015    0.39445967    0.04550000
opls_185-302    H    0.18818986    0.81594987    0.49299960    0.04550000
opls_185-303    H    0.21080987    0.84280985    0.25869036    0.04550000
opls_185-304    H    0.68301010    0.11245995    0.17032064    0.04550000
opls_185-305    H    0.62189002    0.12265008    0.19283061    0.04550000
opls_185-306    H    0.67752999    0.17595007    0.39213026    0.04550000
opls_185-307    H    0.68972000    0.20047007    0.13783076    0.04550000
opls_146-308    H    0.30251003    0.05508003    0.94410036    0.04990000
opls_146-309    H    0.24311988    0.06154003    0.67604062    0.04990000
opls_146-310    H    0.14273000    0.04036997    0.27159952    0.04990000
opls_146-311    H    0.07878985    0.05072013    0.02245973    0.04990000
opls_146-312    H    0.01078014    0.93425008    0.28801955    0.04990000
opls_146-313    H    0.54571010    0.73750013    0.32778996    0.04990000
opls_146-314    H    0.53898015    0.67862013    0.59813039    0.04990000
opls_144-315    H    0.68344008    0.04385990    0.31089035    0.02940000
opls_146-316    H    0.48360011    0.06437012    0.45413051    0.04990000
opls_146-317    H    0.58318015    0.92900016    0.22365945    0.04990000
opls_146-318    H    0.64136991    0.04955983    0.49853993    0.04990000
opls_146-319    H    0.57421012    0.05616015    0.73145002    0.04990000
opls_146-320    H    0.98758014    0.56277015    0.95313023    0.04990000
opls_146-321    H    0.07619997    0.43007995    0.70804939    0.04990000
opls_146-322    H    0.14227998    0.54562991    0.99010992    0.04990000
opls_146-323    H    0.07795997    0.55347004    0.23662038    0.04990000
opls_144-324    H    0.18799007    0.53492996    0.79523005    0.02940000
opls_146-325    H    0.07584016    0.07396991    0.46566944    0.04990000
opls_144-326    H    0.96597009    0.18047000    0.51068938    0.02940000
opls_146-327    H    0.43704008    0.48743013    0.19751073    0.04990000
opls_146-328    H    0.57043990    0.57743010    0.95711001    0.04990000
opls_146-329    H    0.45642007    0.64355988    0.25235986    0.04990000
opls_146-330    H    0.44864008    0.57809995    0.49359946    0.04990000
opls_144-331    H    0.46835015    0.68962010    0.08208033    0.02940000
opls_185-332    H    0.87674989    0.06794991    0.02697999    0.04550000
opls_185-333    H    0.82288996    0.06616987    0.17120977    0.04550000
opls_185-334    H    0.77141010    0.05954016    0.42782954    0.04550000
opls_185-335    H    0.71043001    0.05900995    0.36508024    0.04550000
opls_185-336    H    0.39714986    0.79678002    0.75434975    0.04550000
opls_185-337    H    0.38947010    0.84175011    0.56163941    0.04550000
opls_185-338    H    0.42786993    0.72229995    0.20540026    0.04550000
opls_185-339    H    0.41196015    0.71151013    0.93599007    0.04550000
opls_185-340    H    0.80806999    0.13954009    0.09019975    0.04550000
opls_185-341    H    0.85517993    0.14089015    0.90374075    0.04550000
opls_185-342    H    0.70859986    0.12298016    0.51608051    0.04550000
opls_185-343    H    0.73910009    0.14388996    0.28674979    0.04550000
opls_185-344    H    0.39902011    0.90008987    0.82342955    0.04550000
opls_185-345    H    0.41400011    0.85758004    0.01869005    0.04550000
opls_185-346    H    0.34579997    0.73443016    0.14695959    0.04550000
opls_185-347    H    0.35877007    0.77639007    0.94630949    0.04550000
opls_185-348    H    0.87155009    0.13367010    0.52134070    0.04550000
opls_185-349    H    0.84021997    0.08803985    0.39445967    0.04550000
opls_185-350    H    0.81181014    0.18405013    0.49299960    0.04550000
opls_185-351    H    0.78919013    0.15719015    0.25869036    0.04550000
opls_185-352    H    0.31698990    0.88754005    0.17032064    0.04550000
opls_185-353    H    0.37810998    0.87734992    0.19283061    0.04550000
opls_185-354    H    0.32247001    0.82404993    0.39213026    0.04550000
opls_185-355    H    0.31028000    0.79952993    0.13783076    0.04550000
opls_146-356    H    0.94491997    0.30251003    0.05589964    0.04990000
opls_146-357    H    0.93845997    0.24311988    0.32395938    0.04990000
opls_146-358    H    0.95963003    0.14273000    0.72840048    0.04990000
opls_146-359    H    0.94927987    0.07878985    0.97754027    0.04990000
opls_146-360    H    0.06574992    0.01078014    0.71198045    0.04990000
opls_146-361    H    0.26249987    0.54571010    0.67221004    0.04990000
opls_146-362    H    0.32137987    0.53898015    0.40186961    0.04990000
opls_144-363    H    0.95614010    0.68344008    0.68910965    0.02940000
opls_146-364    H    0.93562988    0.48360011    0.54586949    0.04990000
opls_146-365    H    0.07099984    0.58318015    0.77634055    0.04990000
opls_146-366    H    0.95044017    0.64136991    0.50146007    0.04990000
opls_146-367    H    0.94383985    0.57421012    0.26854998    0.04990000
opls_146-368    H    0.43722985    0.98758014    0.04686977    0.04980000
opls_146-369    H    0.56992005    0.07619997    0.29195061    0.04990000
opls_146-370    H    0.45437009    0.14227998    0.00989008    0.04990000
opls_146-371    H    0.44652996    0.07795997    0.76337962    0.04990000
opls_144-372    H    0.46507004    0.18799007    0.20476995    0.02940000
opls_146-373    H    0.92603009    0.07584016    0.53433056    0.04990000
opls_144-374    H    0.81953000    0.96597009    0.48931062    0.02940000
opls_146-375    H    0.51256987    0.43704008    0.80248927    0.04990000
opls_146-376    H    0.42256990    0.57043990    0.04288999    0.04990000
opls_146-377    H    0.35644012    0.45642007    0.74764014    0.04990000
opls_146-378    H    0.42190005    0.44864008    0.50640054    0.04990000
opls_144-379    H    0.31037990    0.46835015    0.91791967    0.02940000
opls_185-380    H    0.93205009    0.87674989    0.97302001    0.04550000
opls_185-381    H    0.93383013    0.82288996    0.82879023    0.04550000
opls_185-382    H    0.94045984    0.77141010    0.57217046    0.04550000
opls_185-383    H    0.94099005    0.71043001    0.63491976    0.04550000
opls_185-384    H    0.20321998    0.39714986    0.24565025    0.04550000
opls_185-385    H    0.15824989    0.38947010    0.43836059    0.04550000
opls_185-386    H    0.27770005    0.42786993    0.79459974    0.04550000
opls_185-387    H    0.28848987    0.41196015    0.06400993    0.04550000
opls_185-388    H    0.86045991    0.80806999    0.90980025    0.04550000
opls_185-389    H    0.85910985    0.85517993    0.09625925    0.04550000
opls_185-390    H    0.87701984    0.70859986    0.48391949    0.04550000
opls_185-391    H    0.85611004    0.73910009    0.71325021    0.04550000
opls_185-392    H    0.09991013    0.39902011    0.17657045    0.04550000
opls_185-393    H    0.14241996    0.41400011    0.98130995    0.04550000
opls_185-394    H    0.26556984    0.34579997    0.85304041    0.04550000
opls_185-395    H    0.22360993    0.35877007    0.05369051    0.04550000
opls_185-396    H    0.86632990    0.87155009    0.47865930    0.04550000
opls_185-397    H    0.91196015    0.84021997    0.60554033    0.04550000
opls_185-398    H    0.81594987    0.81181014    0.50700040    0.04550000
opls_185-399    H    0.84280985    0.78919013    0.74130964    0.04550000
opls_185-400    H    0.11245995    0.31698990    0.82967936    0.04550000
opls_185-401    H    0.12265008    0.37810998    0.80716939    0.04550000
opls_185-402    H    0.17595007    0.32247001    0.60786974    0.04550000
opls_185-403    H    0.20047007    0.31028000    0.86216924    0.04550000
opls_146-404    H    0.05508003    0.69748997    0.05589964    0.04990000
opls_146-405    H    0.06154003    0.75688012    0.32395938    0.04990000
opls_146-406    H    0.04036997    0.85727000    0.72840048    0.04990000
opls_146-407    H    0.05072013    0.92121015    0.97754027    0.04990000
opls_146-408    H    0.93425008    0.98921986    0.71198045    0.04990000
opls_146-409    H    0.73750013    0.45428990    0.67221004    0.04990000
opls_146-410    H    0.67862013    0.46101985    0.40186961    0.04990000
opls_144-411    H    0.04385990    0.31655992    0.68910965    0.02940000
opls_146-412    H    0.06437012    0.51639989    0.54586949    0.04990000
opls_146-413    H    0.92900016    0.41681985    0.77634055    0.04990000
opls_146-414    H    0.04955983    0.35863009    0.50146007    0.04990000
opls_146-415    H    0.05616015    0.42578988    0.26854998    0.04990000
opls_146-416    H    0.56277015    0.01241986    0.04686977    0.04990000
opls_146-417    H    0.43007995    0.92380003    0.29195061    0.04990000
opls_146-418    H    0.54562991    0.85772002    0.00989008    0.04990000
opls_146-419    H    0.55347004    0.92204003    0.76337962    0.04990000
opls_144-420    H    0.53492996    0.81200993    0.20476995    0.02940000
opls_146-421    H    0.07396991    0.92415984    0.53433056    0.04990000
opls_144-422    H    0.18047000    0.03402991    0.48931062    0.02940000
opls_146-423    H    0.48743013    0.56295992    0.80248927    0.04980000
opls_146-424    H    0.57743010    0.42956010    0.04288999    0.04990000
opls_146-425    H    0.64355988    0.54357993    0.74764014    0.04990000
opls_146-426    H    0.57809995    0.55135992    0.50640054    0.04990000
opls_144-427    H    0.68962010    0.53164985    0.91791967    0.02940000
opls_185-428    H    0.06794991    0.12325011    0.97302001    0.04550000
opls_185-429    H    0.06616987    0.17711004    0.82879023    0.04550000
opls_185-430    H    0.05954016    0.22858990    0.57217046    0.04550000
opls_185-431    H    0.05900995    0.28956999    0.63491976    0.04550000
opls_185-432    H    0.79678002    0.60285014    0.24565025    0.04550000
opls_185-433    H    0.84175011    0.61052990    0.43836059    0.04550000
opls_185-434    H    0.72229995    0.57213007    0.79459974    0.04550000
opls_185-435    H    0.71151013    0.58803985    0.06400993    0.04550000
opls_185-436    H    0.13954009    0.19193001    0.90980025    0.04550000
opls_185-437    H    0.14089015    0.14482007    0.09625925    0.04550000
opls_185-438    H    0.12298016    0.29140014    0.48391949    0.04550000
opls_185-439    H    0.14388996    0.26089991    0.71325021    0.04550000
opls_185-440    H    0.90008987    0.60097989    0.17657045    0.04550000
opls_185-441    H    0.85758004    0.58599989    0.98130995    0.04550000
opls_185-442    H    0.73443016    0.65420003    0.85304041    0.04550000
opls_185-443    H    0.77639007    0.64122993    0.05369051    0.04550000
opls_185-444    H    0.13367010    0.12844991    0.47865930    0.04550000
opls_185-445    H    0.08803985    0.15978003    0.60554033    0.04550000
opls_185-446    H    0.18405013    0.18818986    0.50700040    0.04550000
opls_185-447    H    0.15719015    0.21080987    0.74130964    0.04550000
opls_185-448    H    0.88754005    0.68301010    0.82967936    0.04550000
opls_185-449    H    0.87734992    0.62189002    0.80716939    0.04550000
opls_185-450    H    0.82404993    0.67752999    0.60786974    0.04550000
opls_185-451    H    0.79952993    0.68972000    0.86216924    0.04550000
