#======================================================================
# Crystal Data Generated By AuToFF
#----------------------------------------------------------------------

data_AuToFF_phase_1

_cell_length_a                         24.9060
_cell_length_b                         24.9060
_cell_length_c                         24.9060
_cell_angle_alpha                      90.00
_cell_angle_beta                       90.00
_cell_angle_gamma                      90.00
_symmetry_space_group_name_H-M_alt     'P 1'
_symmetry_space_group_IT_number        1

loop_
_space_group_symop_operation_xyz
   'x, y, z'

loop_
   _atom_site_label
   _atom_site_type_symbol
   _atom_site_fract_x
   _atom_site_fract_y
   _atom_site_fract_z
   _atom_site_charge
opls_142-0    C    0.26469003    0.25356019    0.89260981    0.04850000
opls_139-1    C    0.26608006    0.33896009    0.95128001    0.28830000
opls_145-2    C    0.28921987    0.22162009    0.85622019    -0.13430000
opls_280-3    C    0.33007990    0.84093993    0.73603991    0.34570000
opls_136-4    C    0.62501004    0.46805991    0.18598009    -0.31640000
opls_142-5    C    0.76469003    0.75356019    0.39260981    0.04850000
opls_139-6    C    0.76608006    0.83896009    0.45128001    0.28830000
opls_145-7    C    0.78921987    0.72162009    0.35622019    -0.13430000
opls_280-8    C    0.83007990    0.34093993    0.23603991    0.34570000
opls_136-9    C    0.12501004    0.96805991    0.68598009    -0.31640000
opls_142-10    C    0.23530997    0.74643981    0.39260981    0.04850000
opls_139-11    C    0.23391994    0.66103991    0.45128001    0.28840000
opls_145-12    C    0.21078013    0.77837991    0.35622019    -0.13430000
opls_280-13    C    0.16992010    0.15906007    0.23603991    0.34580000
opls_136-14    C    0.87498996    0.53194009    0.68598009    -0.31640000
opls_142-15    C    0.73530997    0.24643981    0.89260981    0.04850000
opls_139-16    C    0.73391994    0.16103991    0.95128001    0.28830000
opls_145-17    C    0.71078013    0.27837991    0.85622019    -0.13430000
opls_280-18    C    0.66992010    0.65906007    0.73603991    0.34570000
opls_136-19    C    0.37498996    0.03194009    0.18598009    -0.31640000
opls_142-20    C    0.73530997    0.75356019    0.60739019    0.04850000
opls_139-21    C    0.73391994    0.83896009    0.54871999    0.28830000
opls_145-22    C    0.71078013    0.72162009    0.64377981    -0.13430000
opls_280-23    C    0.66992010    0.34093993    0.76396009    0.34570000
opls_136-24    C    0.37498996    0.96805991    0.31401991    -0.31640000
opls_142-25    C    0.23530997    0.25356019    0.10739019    0.04850000
opls_139-26    C    0.23391994    0.33896009    0.04871999    0.28830000
opls_145-27    C    0.21078013    0.22162009    0.14377981    -0.13430000
opls_280-28    C    0.16992010    0.84093993    0.26396009    0.34570000
opls_136-29    C    0.87498996    0.46805991    0.81401991    -0.31640000
opls_142-30    C    0.76469003    0.24643981    0.10739019    0.04850000
opls_139-31    C    0.76608006    0.16103991    0.04871999    0.28830000
opls_145-32    C    0.78921987    0.27837991    0.14377981    -0.13430000
opls_280-33    C    0.83007990    0.65906007    0.26396009    0.34570000
opls_136-34    C    0.12501004    0.03194009    0.81401991    -0.31640000
opls_142-35    C    0.26469003    0.74643981    0.60739019    0.04850000
opls_139-36    C    0.26608006    0.66103991    0.54871999    0.28840000
opls_145-37    C    0.28921987    0.77837991    0.64377981    -0.13430000
opls_280-38    C    0.33007990    0.15906007    0.76396009    0.34570000
opls_136-39    C    0.62501004    0.53194009    0.31401991    -0.31640000
opls_142-40    C    0.89260981    0.26469003    0.25356019    0.04850000
opls_139-41    C    0.95128001    0.26608006    0.33896009    0.28830000
opls_145-42    C    0.85622019    0.28921987    0.22162009    -0.13430000
opls_280-43    C    0.73603991    0.33007990    0.84093993    0.34580000
opls_136-44    C    0.18598009    0.62501004    0.46805991    -0.31640000
opls_142-45    C    0.39260981    0.76469003    0.75356019    0.04850000
opls_139-46    C    0.45128001    0.76608006    0.83896009    0.28830000
opls_145-47    C    0.35622019    0.78921987    0.72162009    -0.13430000
opls_280-48    C    0.23603991    0.83007990    0.34093993    0.34570000
opls_136-49    C    0.68598009    0.12501004    0.96805991    -0.31640000
opls_142-50    C    0.39260981    0.23530997    0.74643981    0.04850000
opls_139-51    C    0.45128001    0.23391994    0.66103991    0.28830000
opls_145-52    C    0.35622019    0.21078013    0.77837991    -0.13430000
opls_280-53    C    0.23603991    0.16992010    0.15906007    0.34580000
opls_136-54    C    0.68598009    0.87498996    0.53194009    -0.31640000
opls_142-55    C    0.89260981    0.73530997    0.24643981    0.04850000
opls_139-56    C    0.95128001    0.73391994    0.16103991    0.28830000
opls_145-57    C    0.85622019    0.71078013    0.27837991    -0.13430000
opls_280-58    C    0.73603991    0.66992010    0.65906007    0.34570000
opls_136-59    C    0.18598009    0.37498996    0.03194009    -0.31640000
opls_142-60    C    0.60739019    0.73530997    0.75356019    0.04850000
opls_139-61    C    0.54871999    0.73391994    0.83896009    0.28830000
opls_145-62    C    0.64377981    0.71078013    0.72162009    -0.13430000
opls_280-63    C    0.76396009    0.66992010    0.34093993    0.34570000
opls_136-64    C    0.31401991    0.37498996    0.96805991    -0.31640000
opls_142-65    C    0.10739019    0.23530997    0.25356019    0.04850000
opls_139-66    C    0.04871999    0.23391994    0.33896009    0.28830000
opls_145-67    C    0.14377981    0.21078013    0.22162009    -0.13430000
opls_280-68    C    0.26396009    0.16992010    0.84093993    0.34570000
opls_136-69    C    0.81401991    0.87498996    0.46805991    -0.31640000
opls_142-70    C    0.10739019    0.76469003    0.24643981    0.04850000
opls_139-71    C    0.04871999    0.76608006    0.16103991    0.28840000
opls_145-72    C    0.14377981    0.78921987    0.27837991    -0.13430000
opls_280-73    C    0.26396009    0.83007990    0.65906007    0.34570000
opls_136-74    C    0.81401991    0.12501004    0.03194009    -0.31640000
opls_142-75    C    0.60739019    0.26469003    0.74643981    0.04850000
opls_139-76    C    0.54871999    0.26608006    0.66103991    0.28830000
opls_145-77    C    0.64377981    0.28921987    0.77837991    -0.13430000
opls_280-78    C    0.76396009    0.33007990    0.15906007    0.34580000
opls_136-79    C    0.31401991    0.62501004    0.53194009    -0.31640000
opls_142-80    C    0.25356019    0.89260981    0.26469003    0.04850000
opls_139-81    C    0.33896009    0.95128001    0.26608006    0.28830000
opls_145-82    C    0.22162009    0.85622019    0.28921987    -0.13430000
opls_280-83    C    0.84093993    0.73603991    0.33007990    0.34570000
opls_136-84    C    0.46805991    0.18598009    0.62501004    -0.31640000
opls_142-85    C    0.75356019    0.39260981    0.76469003    0.04850000
opls_139-86    C    0.83896009    0.45128001    0.76608006    0.28840000
opls_145-87    C    0.72162009    0.35622019    0.78921987    -0.13430000
opls_280-88    C    0.34093993    0.23603991    0.83007990    0.34570000
opls_136-89    C    0.96805991    0.68598009    0.12501004    -0.31640000
opls_142-90    C    0.74643981    0.39260981    0.23530997    0.04850000
opls_139-91    C    0.66103991    0.45128001    0.23391994    0.28830000
opls_145-92    C    0.77837991    0.35622019    0.21078013    -0.13430000
opls_280-93    C    0.15906007    0.23603991    0.16992010    0.34570000
opls_136-94    C    0.53194009    0.68598009    0.87498996    -0.31640000
opls_142-95    C    0.24643981    0.89260981    0.73530997    0.04850000
opls_139-96    C    0.16103991    0.95128001    0.73391994    0.28830000
opls_145-97    C    0.27837991    0.85622019    0.71078013    -0.13430000
opls_280-98    C    0.65906007    0.73603991    0.66992010    0.34570000
opls_136-99    C    0.03194009    0.18598009    0.37498996    -0.31640000
opls_142-100    C    0.75356019    0.60739019    0.73530997    0.04850000
opls_139-101    C    0.83896009    0.54871999    0.73391994    0.28830000
opls_145-102    C    0.72162009    0.64377981    0.71078013    -0.13430000
opls_280-103    C    0.34093993    0.76396009    0.66992010    0.34570000
opls_136-104    C    0.96805991    0.31401991    0.37498996    -0.31640000
opls_142-105    C    0.25356019    0.10739019    0.23530997    0.04850000
opls_139-106    C    0.33896009    0.04871999    0.23391994    0.28830000
opls_145-107    C    0.22162009    0.14377981    0.21078013    -0.13430000
opls_280-108    C    0.84093993    0.26396009    0.16992010    0.34570000
opls_136-109    C    0.46805991    0.81401991    0.87498996    -0.31640000
opls_142-110    C    0.24643981    0.10739019    0.76469003    0.04850000
opls_139-111    C    0.16103991    0.04871999    0.76608006    0.28830000
opls_145-112    C    0.27837991    0.14377981    0.78921987    -0.13430000
opls_280-113    C    0.65906007    0.26396009    0.83007990    0.34570000
opls_136-114    C    0.03194009    0.81401991    0.12501004    -0.31640000
opls_142-115    C    0.74643981    0.60739019    0.26469003    0.04850000
opls_139-116    C    0.66103991    0.54871999    0.26608006    0.28830000
opls_145-117    C    0.77837991    0.64377981    0.28921987    -0.13430000
opls_280-118    C    0.15906007    0.76396009    0.33007990    0.34570000
opls_136-119    C    0.53194009    0.31401991    0.62501004    -0.31640000
opls_142-120    C    0.50356019    0.51469003    0.14260981    0.04850000
opls_139-121    C    0.58896009    0.51608006    0.20128001    0.28830000
opls_145-122    C    0.47162009    0.53921987    0.10622019    -0.13430000
opls_280-123    C    0.09093993    0.58007990    0.98603991    0.34570000
opls_136-124    C    0.71805991    0.87501004    0.43598009    -0.31640000
opls_142-125    C    0.00356019    0.01469003    0.64260981    0.04850000
opls_139-126    C    0.08896009    0.01608006    0.70128001    0.28840000
opls_145-127    C    0.97162009    0.03921987    0.60622019    -0.13430000
opls_280-128    C    0.59093993    0.08007990    0.48603991    0.34570000
opls_136-129    C    0.21805991    0.37501004    0.93598009    -0.31640000
opls_142-130    C    0.99643981    0.48530997    0.64260981    0.04850000
opls_139-131    C    0.91103991    0.48391994    0.70128001    0.28830000
opls_145-132    C    0.02837991    0.46078013    0.60622019    -0.13430000
opls_280-133    C    0.40906007    0.41992010    0.48603991    0.34570000
opls_136-134    C    0.78194009    0.12498996    0.93598009    -0.31640000
opls_142-135    C    0.49643981    0.98530997    0.14260981    0.04850000
opls_139-136    C    0.41103991    0.98391994    0.20128001    0.28830000
opls_145-137    C    0.52837991    0.96078013    0.10622019    -0.13430000
opls_280-138    C    0.90906007    0.91992010    0.98603991    0.34570000
opls_136-139    C    0.28194009    0.62498996    0.43598009    -0.31640000
opls_142-140    C    0.00356019    0.98530997    0.85739019    0.04850000
opls_139-141    C    0.08896009    0.98391994    0.79871999    0.28830000
opls_145-142    C    0.97162009    0.96078013    0.89377981    -0.13430000
opls_280-143    C    0.59093993    0.91992010    0.01396009    0.34570000
opls_136-144    C    0.21805991    0.62498996    0.56401991    -0.31640000
opls_142-145    C    0.50356019    0.48530997    0.35739019    0.04850000
opls_139-146    C    0.58896009    0.48391994    0.29871999    0.28830000
opls_145-147    C    0.47162009    0.46078013    0.39377981    -0.13430000
opls_280-148    C    0.09093993    0.41992010    0.51396009    0.34570000
opls_136-149    C    0.71805991    0.12498996    0.06401991    -0.31640000
opls_142-150    C    0.49643981    0.01469003    0.35739019    0.04850000
opls_139-151    C    0.41103991    0.01608006    0.29871999    0.28830000
opls_145-152    C    0.52837991    0.03921987    0.39377981    -0.13430000
opls_280-153    C    0.90906007    0.08007990    0.51396009    0.34570000
opls_136-154    C    0.28194009    0.37501004    0.06401991    -0.31640000
opls_142-155    C    0.99643981    0.51469003    0.85739019    0.04850000
opls_139-156    C    0.91103991    0.51608006    0.79871999    0.28830000
opls_145-157    C    0.02837991    0.53921987    0.89377981    -0.13430000
opls_280-158    C    0.40906007    0.58007990    0.01396009    0.34570000
opls_136-159    C    0.78194009    0.87501004    0.56401991    -0.31630000
opls_142-160    C    0.51469003    0.14260981    0.50356019    0.04850000
opls_139-161    C    0.51608006    0.20128001    0.58896009    0.28830000
opls_145-162    C    0.53921987    0.10622019    0.47162009    -0.13430000
opls_280-163    C    0.58007990    0.98603991    0.09093993    0.34570000
opls_136-164    C    0.87501004    0.43598009    0.71805991    -0.31640000
opls_142-165    C    0.01469003    0.64260981    0.00356019    0.04850000
opls_139-166    C    0.01608006    0.70128001    0.08896009    0.28830000
opls_145-167    C    0.03921987    0.60622019    0.97162009    -0.13430000
opls_280-168    C    0.08007990    0.48603991    0.59093993    0.34570000
opls_136-169    C    0.37501004    0.93598009    0.21805991    -0.31640000
opls_142-170    C    0.48530997    0.64260981    0.99643981    0.04850000
opls_139-171    C    0.48391994    0.70128001    0.91103991    0.28830000
opls_145-172    C    0.46078013    0.60622019    0.02837991    -0.13430000
opls_280-173    C    0.41992010    0.48603991    0.40906007    0.34570000
opls_136-174    C    0.12498996    0.93598009    0.78194009    -0.31640000
opls_142-175    C    0.98530997    0.14260981    0.49643981    0.04850000
opls_139-176    C    0.98391994    0.20128001    0.41103991    0.28830000
opls_145-177    C    0.96078013    0.10622019    0.52837991    -0.13430000
opls_280-178    C    0.91992010    0.98603991    0.90906007    0.34570000
opls_136-179    C    0.62498996    0.43598009    0.28194009    -0.31640000
opls_142-180    C    0.98530997    0.85739019    0.00356019    0.04850000
opls_139-181    C    0.98391994    0.79871999    0.08896009    0.28830000
opls_145-182    C    0.96078013    0.89377981    0.97162009    -0.13430000
opls_280-183    C    0.91992010    0.01396009    0.59093993    0.34570000
opls_136-184    C    0.62498996    0.56401991    0.21805991    -0.31640000
opls_142-185    C    0.48530997    0.35739019    0.50356019    0.04850000
opls_139-186    C    0.48391994    0.29871999    0.58896009    0.28830000
opls_145-187    C    0.46078013    0.39377981    0.47162009    -0.13430000
opls_280-188    C    0.41992010    0.51396009    0.09093993    0.34570000
opls_136-189    C    0.12498996    0.06401991    0.71805991    -0.31640000
opls_142-190    C    0.01469003    0.35739019    0.49643981    0.04850000
opls_139-191    C    0.01608006    0.29871999    0.41103991    0.28830000
opls_145-192    C    0.03921987    0.39377981    0.52837991    -0.13430000
opls_280-193    C    0.08007990    0.51396009    0.90906007    0.34570000
opls_136-194    C    0.37501004    0.06401991    0.28194009    -0.31640000
opls_142-195    C    0.51469003    0.85739019    0.99643981    0.04850000
opls_139-196    C    0.51608006    0.79871999    0.91103991    0.28830000
opls_145-197    C    0.53921987    0.89377981    0.02837991    -0.13430000
opls_280-198    C    0.58007990    0.01396009    0.40906007    0.34570000
opls_136-199    C    0.87501004    0.56401991    0.78194009    -0.31640000
opls_142-200    C    0.14260981    0.50356019    0.51469003    0.04850000
opls_139-201    C    0.20128001    0.58896009    0.51608006    0.28830000
opls_145-202    C    0.10622019    0.47162009    0.53921987    -0.13430000
opls_280-203    C    0.98603991    0.09093993    0.58007990    0.34570000
opls_136-204    C    0.43598009    0.71805991    0.87501004    -0.31640000
opls_142-205    C    0.64260981    0.00356019    0.01469003    0.04850000
opls_139-206    C    0.70128001    0.08896009    0.01608006    0.28830000
opls_145-207    C    0.60622019    0.97162009    0.03921987    -0.13430000
opls_280-208    C    0.48603991    0.59093993    0.08007990    0.34570000
opls_136-209    C    0.93598009    0.21805991    0.37501004    -0.31640000
opls_142-210    C    0.64260981    0.99643981    0.48530997    0.04850000
opls_139-211    C    0.70128001    0.91103991    0.48391994    0.28830000
opls_145-212    C    0.60622019    0.02837991    0.46078013    -0.13430000
opls_280-213    C    0.48603991    0.40906007    0.41992010    0.34570000
opls_136-214    C    0.93598009    0.78194009    0.12498996    -0.31640000
opls_142-215    C    0.14260981    0.49643981    0.98530997    0.04850000
opls_139-216    C    0.20128001    0.41103991    0.98391994    0.28840000
opls_145-217    C    0.10622019    0.52837991    0.96078013    -0.13430000
opls_280-218    C    0.98603991    0.90906007    0.91992010    0.34570000
opls_136-219    C    0.43598009    0.28194009    0.62498996    -0.31640000
opls_142-220    C    0.85739019    0.00356019    0.98530997    0.04850000
opls_139-221    C    0.79871999    0.08896009    0.98391994    0.28830000
opls_145-222    C    0.89377981    0.97162009    0.96078013    -0.13430000
opls_280-223    C    0.01396009    0.59093993    0.91992010    0.34570000
opls_136-224    C    0.56401991    0.21805991    0.62498996    -0.31640000
opls_142-225    C    0.35739019    0.50356019    0.48530997    0.04850000
opls_139-226    C    0.29871999    0.58896009    0.48391994    0.28830000
opls_145-227    C    0.39377981    0.47162009    0.46078013    -0.13430000
opls_280-228    C    0.51396009    0.09093993    0.41992010    0.34570000
opls_136-229    C    0.06401991    0.71805991    0.12498996    -0.31640000
opls_142-230    C    0.35739019    0.49643981    0.01469003    0.04850000
opls_139-231    C    0.29871999    0.41103991    0.01608006    0.28840000
opls_145-232    C    0.39377981    0.52837991    0.03921987    -0.13430000
opls_280-233    C    0.51396009    0.90906007    0.08007990    0.34570000
opls_136-234    C    0.06401991    0.28194009    0.37501004    -0.31640000
opls_142-235    C    0.85739019    0.99643981    0.51469003    0.04850000
opls_139-236    C    0.79871999    0.91103991    0.51608006    0.28830000
opls_145-237    C    0.89377981    0.02837991    0.53921987    -0.13430000
opls_280-238    C    0.01396009    0.40906007    0.58007990    0.34570000
opls_136-239    C    0.56401991    0.78194009    0.87501004    -0.31640000
opls_136-240    C    0.25000000    0.69681001    0.50000000    -0.31640000
opls_136-241    C    0.25000000    0.30318999    0.00000000    -0.31640000
opls_136-242    C    0.75000000    0.19681001    0.00000000    -0.31640000
opls_136-243    C    0.75000000    0.80318999    0.50000000    -0.31640000
opls_136-244    C    0.50000000    0.25000000    0.69681001    -0.31640000
opls_136-245    C    0.00000000    0.25000000    0.30318999    -0.31640000
opls_136-246    C    0.00000000    0.75000000    0.19681001    -0.31630000
opls_136-247    C    0.50000000    0.75000000    0.80318999    -0.31640000
opls_136-248    C    0.69681001    0.50000000    0.25000000    -0.31640000
opls_136-249    C    0.30318999    0.00000000    0.25000000    -0.31640000
opls_136-250    C    0.19681001    0.00000000    0.75000000    -0.31630000
opls_136-251    C    0.80318999    0.50000000    0.75000000    -0.31640000
opls_136-252    C    0.94681001    0.50000000    0.75000000    -0.31640000
opls_136-253    C    0.55318999    0.50000000    0.25000000    -0.31640000
opls_136-254    C    0.44681001    0.00000000    0.25000000    -0.31640000
opls_136-255    C    0.05318999    0.00000000    0.75000000    -0.31640000
opls_136-256    C    0.50000000    0.75000000    0.94681001    -0.31620000
opls_136-257    C    0.50000000    0.25000000    0.55318999    -0.31640000
opls_136-258    C    0.00000000    0.25000000    0.44681001    -0.31640000
opls_136-259    C    0.00000000    0.75000000    0.05318999    -0.31640000
opls_136-260    C    0.75000000    0.94681001    0.50000000    -0.31640000
opls_136-261    C    0.25000000    0.55318999    0.50000000    -0.31640000
opls_136-262    C    0.25000000    0.44681001    0.00000000    -0.31640000
opls_136-263    C    0.75000000    0.05318999    0.00000000    -0.31640000
opls_900-264    N    0.28243997    0.30730989    0.90406007    -0.41640000
opls_900-265    N    0.78243997    0.80730989    0.40406007    -0.41650000
opls_900-266    N    0.21756003    0.69269011    0.40406007    -0.41640000
opls_900-267    N    0.71756003    0.19269011    0.90406007    -0.41650000
opls_900-268    N    0.71756003    0.80730989    0.59593993    -0.41650000
opls_900-269    N    0.21756003    0.30730989    0.09593993    -0.41650000
opls_900-270    N    0.78243997    0.19269011    0.09593993    -0.41650000
opls_900-271    N    0.28243997    0.69269011    0.59593993    -0.41650000
opls_900-272    N    0.90406007    0.28243997    0.30730989    -0.41650000
opls_900-273    N    0.40406007    0.78243997    0.80730989    -0.41650000
opls_900-274    N    0.40406007    0.21756003    0.69269011    -0.41650000
opls_900-275    N    0.90406007    0.71756003    0.19269011    -0.41650000
opls_900-276    N    0.59593993    0.71756003    0.80730989    -0.41650000
opls_900-277    N    0.09593993    0.21756003    0.30730989    -0.41650000
opls_900-278    N    0.09593993    0.78243997    0.19269011    -0.41650000
opls_900-279    N    0.59593993    0.28243997    0.69269011    -0.41650000
opls_900-280    N    0.30730989    0.90406007    0.28243997    -0.41650000
opls_900-281    N    0.80730989    0.40406007    0.78243997    -0.41650000
opls_900-282    N    0.69269011    0.40406007    0.21756003    -0.41650000
opls_900-283    N    0.19269011    0.90406007    0.71756003    -0.41650000
opls_900-284    N    0.80730989    0.59593993    0.71756003    -0.41650000
opls_900-285    N    0.30730989    0.09593993    0.21756003    -0.41640000
opls_900-286    N    0.19269011    0.09593993    0.78243997    -0.41650000
opls_900-287    N    0.69269011    0.59593993    0.28243997    -0.41650000
opls_900-288    N    0.55730989    0.53243997    0.15406007    -0.41640000
opls_900-289    N    0.05730989    0.03243997    0.65406007    -0.41650000
opls_900-290    N    0.94269011    0.46756003    0.65406007    -0.41650000
opls_900-291    N    0.44269011    0.96756003    0.15406007    -0.41650000
opls_900-292    N    0.05730989    0.96756003    0.84593993    -0.41650000
opls_900-293    N    0.55730989    0.46756003    0.34593993    -0.41640000
opls_900-294    N    0.44269011    0.03243997    0.34593993    -0.41640000
opls_900-295    N    0.94269011    0.53243997    0.84593993    -0.41650000
opls_900-296    N    0.53243997    0.15406007    0.55730989    -0.41650000
opls_900-297    N    0.03243997    0.65406007    0.05730989    -0.41650000
opls_900-298    N    0.46756003    0.65406007    0.94269011    -0.41650000
opls_900-299    N    0.96756003    0.15406007    0.44269011    -0.41650000
opls_900-300    N    0.96756003    0.84593993    0.05730989    -0.41640000
opls_900-301    N    0.46756003    0.34593993    0.55730989    -0.41640000
opls_900-302    N    0.03243997    0.34593993    0.44269011    -0.41650000
opls_900-303    N    0.53243997    0.84593993    0.94269011    -0.41650000
opls_900-304    N    0.15406007    0.55730989    0.53243997    -0.41650000
opls_900-305    N    0.65406007    0.05730989    0.03243997    -0.41650000
opls_900-306    N    0.65406007    0.94269011    0.46756003    -0.41650000
opls_900-307    N    0.15406007    0.44269011    0.96756003    -0.41650000
opls_900-308    N    0.84593993    0.05730989    0.96756003    -0.41650000
opls_900-309    N    0.34593993    0.55730989    0.46756003    -0.41650000
opls_900-310    N    0.34593993    0.44269011    0.03243997    -0.41650000
opls_900-311    N    0.84593993    0.94269011    0.53243997    -0.41650000
opls_281-312    O    0.26690998    0.85207018    0.37200996    -0.39350000
opls_281-313    O    0.76690998    0.35207018    0.87200996    -0.39360000
opls_281-314    O    0.23309002    0.14792982    0.87200996    -0.39360000
opls_281-315    O    0.73309002    0.64792982    0.37200996    -0.39350000
opls_281-316    O    0.73309002    0.35207018    0.12799004    -0.39360000
opls_281-317    O    0.23309002    0.85207018    0.62799004    -0.39340000
opls_281-318    O    0.76690998    0.64792982    0.62799004    -0.39360000
opls_281-319    O    0.26690998    0.14792982    0.12799004    -0.39360000
opls_281-320    O    0.37200996    0.26690998    0.85207018    -0.39360000
opls_281-321    O    0.87200996    0.76690998    0.35207018    -0.39360000
opls_281-322    O    0.87200996    0.23309002    0.14792982    -0.39360000
opls_281-323    O    0.37200996    0.73309002    0.64792982    -0.39360000
opls_281-324    O    0.12799004    0.73309002    0.35207018    -0.39360000
opls_281-325    O    0.62799004    0.23309002    0.85207018    -0.39350000
opls_281-326    O    0.62799004    0.76690998    0.64792982    -0.39360000
opls_281-327    O    0.12799004    0.26690998    0.14792982    -0.39350000
opls_281-328    O    0.85207018    0.37200996    0.26690998    -0.39360000
opls_281-329    O    0.35207018    0.87200996    0.76690998    -0.39360000
opls_281-330    O    0.14792982    0.87200996    0.23309002    -0.39360000
opls_281-331    O    0.64792982    0.37200996    0.73309002    -0.39360000
opls_281-332    O    0.35207018    0.12799004    0.73309002    -0.39360000
opls_281-333    O    0.85207018    0.62799004    0.23309002    -0.39360000
opls_281-334    O    0.64792982    0.62799004    0.76690998    -0.39350000
opls_281-335    O    0.14792982    0.12799004    0.26690998    -0.39350000
opls_281-336    O    0.10207018    0.51690998    0.62200996    -0.39360000
opls_281-337    O    0.60207018    0.01690998    0.12200996    -0.39360000
opls_281-338    O    0.39792982    0.48309002    0.12200996    -0.39360000
opls_281-339    O    0.89792982    0.98309002    0.62200996    -0.39350000
opls_281-340    O    0.60207018    0.98309002    0.37799004    -0.39360000
opls_281-341    O    0.10207018    0.48309002    0.87799004    -0.39360000
opls_281-342    O    0.89792982    0.01690998    0.87799004    -0.39360000
opls_281-343    O    0.39792982    0.51690998    0.37799004    -0.39360000
opls_281-344    O    0.51690998    0.62200996    0.10207018    -0.39360000
opls_281-345    O    0.01690998    0.12200996    0.60207018    -0.39350000
opls_281-346    O    0.48309002    0.12200996    0.39792982    -0.39360000
opls_281-347    O    0.98309002    0.62200996    0.89792982    -0.39360000
opls_281-348    O    0.98309002    0.37799004    0.60207018    -0.39360000
opls_281-349    O    0.48309002    0.87799004    0.10207018    -0.39360000
opls_281-350    O    0.01690998    0.87799004    0.89792982    -0.39360000
opls_281-351    O    0.51690998    0.37799004    0.39792982    -0.39350000
opls_281-352    O    0.62200996    0.10207018    0.51690998    -0.39360000
opls_281-353    O    0.12200996    0.60207018    0.01690998    -0.39360000
opls_281-354    O    0.12200996    0.39792982    0.48309002    -0.39360000
opls_281-355    O    0.62200996    0.89792982    0.98309002    -0.39360000
opls_281-356    O    0.37799004    0.60207018    0.98309002    -0.39360000
opls_281-357    O    0.87799004    0.10207018    0.48309002    -0.39360000
opls_281-358    O    0.87799004    0.89792982    0.01690998    -0.39360000
opls_281-359    O    0.37799004    0.39792982    0.51690998    -0.39360000
opls_140-360    H    0.65064001    0.47878985    0.15098009    0.12090000
opls_140-361    H    0.59927006    0.43375010    0.17338995    0.12090000
opls_910-362    H    0.30111981    0.32863005    0.87312013    0.26600000
opls_144-363    H    0.22798000    0.23962981    0.91111017    0.12240000
opls_140-364    H    0.97294989    0.53471011    0.74006986    0.10620000
opls_140-365    H    0.15064001    0.97878985    0.65098009    0.12090000
opls_140-366    H    0.09927006    0.93375010    0.67338995    0.12090000
opls_910-367    H    0.80111981    0.82863005    0.37312013    0.26600000
opls_144-368    H    0.72798000    0.73962981    0.41111017    0.12240000
opls_140-369    H    0.47294989    0.03471011    0.24006986    0.10620000
opls_140-370    H    0.84935999    0.52121015    0.65098009    0.12090000
opls_140-371    H    0.90072994    0.56624990    0.67338995    0.12090000
opls_910-372    H    0.19888019    0.67136995    0.37312013    0.26600000
opls_144-373    H    0.27202000    0.76037019    0.41111017    0.12240000
opls_140-374    H    0.52705011    0.46528989    0.24006986    0.10620000
opls_140-375    H    0.34935999    0.02121015    0.15098009    0.12090000
opls_140-376    H    0.40072994    0.06624990    0.17338995    0.12090000
opls_910-377    H    0.69888019    0.17136995    0.87312013    0.26600000
opls_144-378    H    0.77202000    0.26037019    0.91111017    0.12240000
opls_140-379    H    0.02705011    0.96528989    0.74006986    0.10620000
opls_140-380    H    0.34935999    0.97878985    0.34901991    0.12090000
opls_140-381    H    0.40072994    0.93375010    0.32661005    0.12090000
opls_910-382    H    0.69888019    0.82863005    0.62687987    0.26600000
opls_144-383    H    0.77202000    0.73962981    0.58888983    0.12240000
opls_140-384    H    0.02705011    0.03471011    0.75993014    0.10620000
opls_140-385    H    0.84935999    0.47878985    0.84901991    0.12090000
opls_140-386    H    0.90072994    0.43375010    0.82661005    0.12090000
opls_910-387    H    0.19888019    0.32863005    0.12687987    0.26600000
opls_144-388    H    0.27202000    0.23962981    0.08888983    0.12240000
opls_140-389    H    0.52705011    0.53471011    0.25993014    0.10620000
opls_140-390    H    0.15064001    0.02121015    0.84901991    0.12090000
opls_140-391    H    0.09927006    0.06624990    0.82661005    0.12100000
opls_910-392    H    0.80111981    0.17136995    0.12687987    0.26600000
opls_144-393    H    0.72798000    0.26037019    0.08888983    0.12240000
opls_140-394    H    0.47294989    0.96528989    0.25993014    0.10630000
opls_140-395    H    0.65064001    0.52121015    0.34901991    0.12090000
opls_140-396    H    0.59927006    0.56624990    0.32661005    0.12090000
opls_910-397    H    0.30111981    0.67136995    0.62687987    0.26610000
opls_144-398    H    0.22798000    0.76037019    0.58888983    0.12240000
opls_140-399    H    0.97294989    0.46528989    0.75993014    0.10620000
opls_140-400    H    0.15098009    0.65064001    0.47878985    0.12090000
opls_140-401    H    0.17338995    0.59927006    0.43375010    0.12090000
opls_910-402    H    0.87312013    0.30111981    0.32863005    0.26600000
opls_144-403    H    0.91111017    0.22798000    0.23962981    0.12240000
opls_140-404    H    0.74006986    0.97294989    0.53471011    0.10620000
opls_140-405    H    0.65098009    0.15064001    0.97878985    0.12090000
opls_140-406    H    0.67338995    0.09927006    0.93375010    0.12090000
opls_910-407    H    0.37312013    0.80111981    0.82863005    0.26610000
opls_144-408    H    0.41111017    0.72798000    0.73962981    0.12240000
opls_140-409    H    0.24006986    0.47294989    0.03471011    0.10620000
opls_140-410    H    0.65098009    0.84935999    0.52121015    0.12090000
opls_140-411    H    0.67338995    0.90072994    0.56624990    0.12090000
opls_910-412    H    0.37312013    0.19888019    0.67136995    0.26600000
opls_144-413    H    0.41111017    0.27202000    0.76037019    0.12250000
opls_140-414    H    0.24006986    0.52705011    0.46528989    0.10620000
opls_140-415    H    0.15098009    0.34935999    0.02121015    0.12090000
opls_140-416    H    0.17338995    0.40072994    0.06624990    0.12090000
opls_910-417    H    0.87312013    0.69888019    0.17136995    0.26600000
opls_144-418    H    0.91111017    0.77202000    0.26037019    0.12240000
opls_140-419    H    0.74006986    0.02705011    0.96528989    0.10620000
opls_140-420    H    0.34901991    0.34935999    0.97878985    0.12090000
opls_140-421    H    0.32661005    0.40072994    0.93375010    0.12090000
opls_910-422    H    0.62687987    0.69888019    0.82863005    0.26600000
opls_144-423    H    0.58888983    0.77202000    0.73962981    0.12240000
opls_140-424    H    0.75993014    0.02705011    0.03471011    0.10620000
opls_140-425    H    0.84901991    0.84935999    0.47878985    0.12090000
opls_140-426    H    0.82661005    0.90072994    0.43375010    0.12090000
opls_910-427    H    0.12687987    0.19888019    0.32863005    0.26600000
opls_144-428    H    0.08888983    0.27202000    0.23962981    0.12240000
opls_140-429    H    0.25993014    0.52705011    0.53471011    0.10620000
opls_140-430    H    0.84901991    0.15064001    0.02121015    0.12090000
opls_140-431    H    0.82661005    0.09927006    0.06624990    0.12090000
opls_910-432    H    0.12687987    0.80111981    0.17136995    0.26600000
opls_144-433    H    0.08888983    0.72798000    0.26037019    0.12240000
opls_140-434    H    0.25993014    0.47294989    0.96528989    0.10620000
opls_140-435    H    0.34901991    0.65064001    0.52121015    0.12090000
opls_140-436    H    0.32661005    0.59927006    0.56624990    0.12090000
opls_910-437    H    0.62687987    0.30111981    0.67136995    0.26600000
opls_144-438    H    0.58888983    0.22798000    0.76037019    0.12240000
opls_140-439    H    0.75993014    0.97294989    0.46528989    0.10620000
opls_140-440    H    0.47878985    0.15098009    0.65064001    0.12090000
opls_140-441    H    0.43375010    0.17338995    0.59927006    0.12090000
opls_910-442    H    0.32863005    0.87312013    0.30111981    0.26600000
opls_144-443    H    0.23962981    0.91111017    0.22798000    0.12240000
opls_140-444    H    0.53471011    0.74006986    0.97294989    0.10620000
opls_140-445    H    0.97878985    0.65098009    0.15064001    0.12100000
opls_140-446    H    0.93375010    0.67338995    0.09927006    0.12090000
opls_910-447    H    0.82863005    0.37312013    0.80111981    0.26600000
opls_144-448    H    0.73962981    0.41111017    0.72798000    0.12240000
opls_140-449    H    0.03471011    0.24006986    0.47294989    0.10620000
opls_140-450    H    0.52121015    0.65098009    0.84935999    0.12090000
opls_140-451    H    0.56624990    0.67338995    0.90072994    0.12090000
opls_910-452    H    0.67136995    0.37312013    0.19888019    0.26600000
opls_144-453    H    0.76037019    0.41111017    0.27202000    0.12240000
opls_140-454    H    0.46528989    0.24006986    0.52705011    0.10620000
opls_140-455    H    0.02121015    0.15098009    0.34935999    0.12090000
opls_140-456    H    0.06624990    0.17338995    0.40072994    0.12090000
opls_910-457    H    0.17136995    0.87312013    0.69888019    0.26600000
opls_144-458    H    0.26037019    0.91111017    0.77202000    0.12240000
opls_140-459    H    0.96528989    0.74006986    0.02705011    0.10620000
opls_140-460    H    0.97878985    0.34901991    0.34935999    0.12090000
opls_140-461    H    0.93375010    0.32661005    0.40072994    0.12090000
opls_910-462    H    0.82863005    0.62687987    0.69888019    0.26600000
opls_144-463    H    0.73962981    0.58888983    0.77202000    0.12240000
opls_140-464    H    0.03471011    0.75993014    0.02705011    0.10620000
opls_140-465    H    0.47878985    0.84901991    0.84935999    0.12090000
opls_140-466    H    0.43375010    0.82661005    0.90072994    0.12090000
opls_910-467    H    0.32863005    0.12687987    0.19888019    0.26600000
opls_144-468    H    0.23962981    0.08888983    0.27202000    0.12240000
opls_140-469    H    0.53471011    0.25993014    0.52705011    0.10620000
opls_140-470    H    0.02121015    0.84901991    0.15064001    0.12090000
opls_140-471    H    0.06624990    0.82661005    0.09927006    0.12090000
opls_910-472    H    0.17136995    0.12687987    0.80111981    0.26600000
opls_144-473    H    0.26037019    0.08888983    0.72798000    0.12240000
opls_140-474    H    0.96528989    0.25993014    0.47294989    0.10620000
opls_140-475    H    0.52121015    0.34901991    0.65064001    0.12090000
opls_140-476    H    0.56624990    0.32661005    0.59927006    0.12090000
opls_910-477    H    0.67136995    0.62687987    0.30111981    0.26600000
opls_144-478    H    0.76037019    0.58888983    0.22798000    0.12240000
opls_140-479    H    0.46528989    0.75993014    0.97294989    0.10630000
opls_140-480    H    0.72878985    0.90064001    0.40098009    0.12090000
opls_140-481    H    0.68375010    0.84927006    0.42338995    0.12090000
opls_910-482    H    0.57863005    0.55111981    0.12312013    0.26600000
opls_144-483    H    0.48962981    0.47798000    0.16111017    0.12240000
opls_140-484    H    0.78471011    0.22294989    0.99006986    0.10620000
opls_140-485    H    0.22878985    0.40064001    0.90098009    0.12090000
opls_140-486    H    0.18375010    0.34927006    0.92338995    0.12090000
opls_910-487    H    0.07863005    0.05111981    0.62312013    0.26600000
opls_144-488    H    0.98962981    0.97798000    0.66111017    0.12240000
opls_140-489    H    0.28471011    0.72294989    0.49006986    0.10620000
opls_140-490    H    0.77121015    0.09935999    0.90098009    0.12090000
opls_140-491    H    0.81624990    0.15072994    0.92338995    0.12090000
opls_910-492    H    0.92136995    0.44888019    0.62312013    0.26600000
opls_144-493    H    0.01037019    0.52202000    0.66111017    0.12240000
opls_140-494    H    0.71528989    0.77705011    0.49006986    0.10620000
opls_140-495    H    0.27121015    0.59935999    0.40098009    0.12090000
opls_140-496    H    0.31624990    0.65072994    0.42338995    0.12090000
opls_910-497    H    0.42136995    0.94888019    0.12312013    0.26600000
opls_144-498    H    0.51037019    0.02202000    0.16111017    0.12240000
opls_140-499    H    0.21528989    0.27705011    0.99006986    0.10630000
opls_140-500    H    0.22878985    0.59935999    0.59901991    0.12090000
opls_140-501    H    0.18375010    0.65072994    0.57661005    0.12090000
opls_910-502    H    0.07863005    0.94888019    0.87687987    0.26600000
opls_144-503    H    0.98962981    0.02202000    0.83888983    0.12240000
opls_140-504    H    0.28471011    0.27705011    0.00993014    0.10620000
opls_140-505    H    0.72878985    0.09935999    0.09901991    0.12090000
opls_140-506    H    0.68375010    0.15072994    0.07661005    0.12090000
opls_910-507    H    0.57863005    0.44888019    0.37687987    0.26600000
opls_144-508    H    0.48962981    0.52202000    0.33888983    0.12240000
opls_140-509    H    0.78471011    0.77705011    0.50993014    0.10620000
opls_140-510    H    0.27121015    0.40064001    0.09901991    0.12090000
opls_140-511    H    0.31624990    0.34927006    0.07661005    0.12090000
opls_910-512    H    0.42136995    0.05111981    0.37687987    0.26600000
opls_144-513    H    0.51037019    0.97798000    0.33888983    0.12240000
opls_140-514    H    0.21528989    0.72294989    0.50993014    0.10620000
opls_140-515    H    0.77121015    0.90064001    0.59901991    0.12090000
opls_140-516    H    0.81624990    0.84927006    0.57661005    0.12090000
opls_910-517    H    0.92136995    0.55111981    0.87687987    0.26600000
opls_144-518    H    0.01037019    0.47798000    0.83888983    0.12240000
opls_140-519    H    0.71528989    0.22294989    0.00993014    0.10620000
opls_140-520    H    0.90064001    0.40098009    0.72878985    0.12090000
opls_140-521    H    0.84927006    0.42338995    0.68375010    0.12090000
opls_910-522    H    0.55111981    0.12312013    0.57863005    0.26600000
opls_144-523    H    0.47798000    0.16111017    0.48962981    0.12240000
opls_140-524    H    0.22294989    0.99006986    0.78471011    0.10620000
opls_140-525    H    0.40064001    0.90098009    0.22878985    0.12090000
opls_140-526    H    0.34927006    0.92338995    0.18375010    0.12090000
opls_910-527    H    0.05111981    0.62312013    0.07863005    0.26600000
opls_144-528    H    0.97798000    0.66111017    0.98962981    0.12240000
opls_140-529    H    0.72294989    0.49006986    0.28471011    0.10620000
opls_140-530    H    0.09935999    0.90098009    0.77121015    0.12090000
opls_140-531    H    0.15072994    0.92338995    0.81624990    0.12100000
opls_910-532    H    0.44888019    0.62312013    0.92136995    0.26600000
opls_144-533    H    0.52202000    0.66111017    0.01037019    0.12240000
opls_140-534    H    0.77705011    0.49006986    0.71528989    0.10620000
opls_140-535    H    0.59935999    0.40098009    0.27121015    0.12090000
opls_140-536    H    0.65072994    0.42338995    0.31624990    0.12090000
opls_910-537    H    0.94888019    0.12312013    0.42136995    0.26600000
opls_144-538    H    0.02202000    0.16111017    0.51037019    0.12240000
opls_140-539    H    0.27705011    0.99006986    0.21528989    0.10620000
opls_140-540    H    0.59935999    0.59901991    0.22878985    0.12090000
opls_140-541    H    0.65072994    0.57661005    0.18375010    0.12090000
opls_910-542    H    0.94888019    0.87687987    0.07863005    0.26600000
opls_144-543    H    0.02202000    0.83888983    0.98962981    0.12240000
opls_140-544    H    0.27705011    0.00993014    0.28471011    0.10620000
opls_140-545    H    0.09935999    0.09901991    0.72878985    0.12090000
opls_140-546    H    0.15072994    0.07661005    0.68375010    0.12090000
opls_910-547    H    0.44888019    0.37687987    0.57863005    0.26610000
opls_144-548    H    0.52202000    0.33888983    0.48962981    0.12250000
opls_140-549    H    0.77705011    0.50993014    0.78471011    0.10620000
opls_140-550    H    0.40064001    0.09901991    0.27121015    0.12090000
opls_140-551    H    0.34927006    0.07661005    0.31624990    0.12090000
opls_910-552    H    0.05111981    0.37687987    0.42136995    0.26600000
opls_144-553    H    0.97798000    0.33888983    0.51037019    0.12240000
opls_140-554    H    0.72294989    0.50993014    0.21528989    0.10620000
opls_140-555    H    0.90064001    0.59901991    0.77121015    0.12090000
opls_140-556    H    0.84927006    0.57661005    0.81624990    0.12090000
opls_910-557    H    0.55111981    0.87687987    0.92136995    0.26600000
opls_144-558    H    0.47798000    0.83888983    0.01037019    0.12240000
opls_140-559    H    0.22294989    0.00993014    0.71528989    0.10620000
opls_140-560    H    0.40098009    0.72878985    0.90064001    0.12090000
opls_140-561    H    0.42338995    0.68375010    0.84927006    0.12090000
opls_910-562    H    0.12312013    0.57863005    0.55111981    0.26600000
opls_144-563    H    0.16111017    0.48962981    0.47798000    0.12240000
opls_140-564    H    0.99006986    0.78471011    0.22294989    0.10620000
opls_140-565    H    0.90098009    0.22878985    0.40064001    0.12090000
opls_140-566    H    0.92338995    0.18375010    0.34927006    0.12100000
opls_910-567    H    0.62312013    0.07863005    0.05111981    0.26600000
opls_144-568    H    0.66111017    0.98962981    0.97798000    0.12240000
opls_140-569    H    0.49006986    0.28471011    0.72294989    0.10620000
opls_140-570    H    0.90098009    0.77121015    0.09935999    0.12090000
opls_140-571    H    0.92338995    0.81624990    0.15072994    0.12090000
opls_910-572    H    0.62312013    0.92136995    0.44888019    0.26600000
opls_144-573    H    0.66111017    0.01037019    0.52202000    0.12240000
opls_140-574    H    0.49006986    0.71528989    0.77705011    0.10620000
opls_140-575    H    0.40098009    0.27121015    0.59935999    0.12090000
opls_140-576    H    0.42338995    0.31624990    0.65072994    0.12090000
opls_910-577    H    0.12312013    0.42136995    0.94888019    0.26600000
opls_144-578    H    0.16111017    0.51037019    0.02202000    0.12240000
opls_140-579    H    0.99006986    0.21528989    0.27705011    0.10620000
opls_140-580    H    0.59901991    0.22878985    0.59935999    0.12100000
opls_140-581    H    0.57661005    0.18375010    0.65072994    0.12090000
opls_910-582    H    0.87687987    0.07863005    0.94888019    0.26600000
opls_144-583    H    0.83888983    0.98962981    0.02202000    0.12240000
opls_140-584    H    0.00993014    0.28471011    0.27705011    0.10620000
opls_140-585    H    0.09901991    0.72878985    0.09935999    0.12090000
opls_140-586    H    0.07661005    0.68375010    0.15072994    0.12090000
opls_910-587    H    0.37687987    0.57863005    0.44888019    0.26600000
opls_144-588    H    0.33888983    0.48962981    0.52202000    0.12240000
opls_140-589    H    0.50993014    0.78471011    0.77705011    0.10620000
opls_140-590    H    0.09901991    0.27121015    0.40064001    0.12090000
opls_140-591    H    0.07661005    0.31624990    0.34927006    0.12090000
opls_910-592    H    0.37687987    0.42136995    0.05111981    0.26600000
opls_144-593    H    0.33888983    0.51037019    0.97798000    0.12240000
opls_140-594    H    0.50993014    0.21528989    0.72294989    0.10620000
opls_140-595    H    0.59901991    0.77121015    0.90064001    0.12090000
opls_140-596    H    0.57661005    0.81624990    0.84927006    0.12090000
opls_910-597    H    0.87687987    0.92136995    0.55111981    0.26600000
opls_144-598    H    0.83888983    0.01037019    0.47798000    0.12240000
opls_140-599    H    0.00993014    0.71528989    0.22294989    0.10620000
