#======================================================================
# Crystal Data Generated By AuToFF
#----------------------------------------------------------------------

data_AuToFF_phase_1

_cell_length_a                         27.9370
_cell_length_b                         27.9370
_cell_length_c                         74.8012
_cell_angle_alpha                      90.00
_cell_angle_beta                       90.00
_cell_angle_gamma                      90.00
_symmetry_space_group_name_H-M_alt     'P 1'
_symmetry_space_group_IT_number        1

loop_
_space_group_symop_operation_xyz
   'x, y, z'

loop_
   _atom_site_label
   _atom_site_type_symbol
   _atom_site_fract_x
   _atom_site_fract_y
   _atom_site_fract_z
   _atom_site_charge
opls_145-0    C    0.09371013    0.99992018    0.99193997    -0.16280000
opls_166-1    C    0.12923005    0.99989011    0.97774006    0.31990000
opls_700-2    C    0.11169990    0.99989011    0.95977003    -0.02750000
opls_145-3    C    0.05948992    0.99993986    0.95605004    -0.05720000
opls_700-4    C    0.02588002    0.99997995    0.97036999    -0.00070000
opls_700-5    C    0.04212013    0.99996993    0.98793001    0.06290000
opls_142-6    C    0.14824999    0.99988009    0.94494005    0.03910000
opls_145-7    C    0.14838995    0.99985002    0.89554004    -0.12960000
opls_145-8    C    0.18128002    0.99989011    0.88096006    0.08730000
opls_700-9    C    0.23426996    0.99997995    0.88287006    -0.04970000
opls_700-10    C    0.25319003    0.00002005    0.90092004    0.15260000
opls_145-11    C    0.21975015    0.99997995    0.91543999    -0.12810000
opls_145-12    C    0.16741991    0.99989011    0.91288001    0.23100000
opls_181-13    C    0.49984000    0.69685006    0.50082004    -0.16980000
MOF2_C_3-14    C    0.49989011    0.80784014    0.59407001    -0.31670000
MOF2_C_3-15    C    0.16733006    0.99985002    0.86660000    -0.28930000
opls_701-16    C    0.00000000    0.00000000    0.00000000    -0.00680000
opls_145-17    C    0.40628987    0.50007982    0.49193997    -0.16280000
opls_166-18    C    0.37076995    0.50010989    0.47774006    0.31990000
opls_700-19    C    0.38830010    0.50010989    0.45977003    -0.02750000
opls_145-20    C    0.44051008    0.50006014    0.45605004    -0.05720000
opls_700-21    C    0.47411998    0.50002005    0.47036999    -0.00070000
opls_700-22    C    0.45787987    0.50003007    0.48793001    0.06290000
opls_142-23    C    0.35175001    0.50011991    0.44494005    0.03910000
opls_145-24    C    0.35161005    0.50014998    0.39554004    -0.12960000
opls_145-25    C    0.31871998    0.50010989    0.38096006    0.08730000
opls_700-26    C    0.26573004    0.50002005    0.38287006    -0.04970000
opls_700-27    C    0.24680997    0.49997995    0.40092004    0.15260000
opls_145-28    C    0.28024985    0.50002005    0.41543999    -0.12810000
opls_145-29    C    0.33258009    0.50010989    0.41288001    0.23100000
opls_181-30    C    0.00016000    0.80314994    0.00082004    -0.16980000
MOF2_C_3-31    C    0.00010989    0.69215986    0.09407001    -0.31670000
MOF2_C_3-32    C    0.33266994    0.50014998    0.36660000    -0.28930000
opls_701-33    C    0.50000000    0.50000000    0.50000000    -0.00680000
opls_145-34    C    0.00007982    0.59371013    0.24193997    -0.16280000
opls_166-35    C    0.00010989    0.62923005    0.22774006    0.31990000
opls_700-36    C    0.00010989    0.61169990    0.20977003    -0.02750000
opls_145-37    C    0.00006014    0.55948992    0.20605004    -0.05720000
opls_700-38    C    0.00002005    0.52588002    0.22036999    -0.00070000
opls_700-39    C    0.00003007    0.54212013    0.23793001    0.06290000
opls_142-40    C    0.00011991    0.64824999    0.19494005    0.03910000
opls_145-41    C    0.00014998    0.64838995    0.14554004    -0.12960000
opls_145-42    C    0.00010989    0.68128002    0.13096006    0.08730000
opls_700-43    C    0.00002005    0.73426996    0.13287006    -0.04970000
opls_700-44    C    0.99997995    0.75319003    0.15092004    0.15260000
opls_145-45    C    0.00002005    0.71975015    0.16543999    -0.12810000
opls_145-46    C    0.00010989    0.66741991    0.16288001    0.23100000
opls_181-47    C    0.30314994    0.99984000    0.75082004    -0.16980000
MOF2_C_3-48    C    0.19215986    0.99989011    0.84407001    -0.31670000
MOF2_C_3-49    C    0.00014998    0.66733006    0.11660000    -0.28930000
opls_701-50    C    0.00000000    0.50000000    0.25000000    -0.00680000
opls_145-51    C    0.49992018    0.90628987    0.74193997    -0.16280000
opls_166-52    C    0.49989011    0.87076995    0.72774006    0.31990000
opls_700-53    C    0.49989011    0.88830010    0.70977003    -0.02750000
opls_145-54    C    0.49993986    0.94051008    0.70605004    -0.05720000
opls_700-55    C    0.49997995    0.97411998    0.72036999    -0.00070000
opls_700-56    C    0.49996993    0.95787987    0.73793001    0.06290000
opls_142-57    C    0.49988009    0.85175001    0.69494005    0.03910000
opls_145-58    C    0.49985002    0.85161005    0.64554004    -0.12960000
opls_145-59    C    0.49989011    0.81871998    0.63096006    0.08730000
opls_700-60    C    0.49997995    0.76573004    0.63287006    -0.04970000
opls_700-61    C    0.50002005    0.74680997    0.65092004    0.15260000
opls_145-62    C    0.49997995    0.78024985    0.66543999    -0.12810000
opls_145-63    C    0.49989011    0.83258009    0.66288001    0.23100000
opls_181-64    C    0.19685006    0.50016000    0.25082004    -0.16980000
MOF2_C_3-65    C    0.30784014    0.50010989    0.34407001    -0.31670000
MOF2_C_3-66    C    0.49985002    0.83266994    0.61660000    -0.28930000
opls_701-67    C    0.50000000    0.00000000    0.75000000    -0.00680000
opls_145-68    C    0.90628987    0.50007982    0.25806003    -0.16280000
opls_166-69    C    0.87076995    0.50010989    0.27225994    0.31990000
opls_700-70    C    0.88830010    0.50010989    0.29022997    -0.02750000
opls_145-71    C    0.94051008    0.50006014    0.29394996    -0.05720000
opls_700-72    C    0.97411998    0.50002005    0.27963001    -0.00070000
opls_700-73    C    0.95787987    0.50003007    0.26206999    0.06290000
opls_142-74    C    0.85175001    0.50011991    0.30505995    0.03910000
opls_145-75    C    0.85161005    0.50014998    0.35445996    -0.12960000
opls_145-76    C    0.81871998    0.50010989    0.36903994    0.08730000
opls_700-77    C    0.76573004    0.50002005    0.36712994    -0.04970000
opls_700-78    C    0.74680997    0.49997995    0.34907996    0.15260000
opls_145-79    C    0.78024985    0.50002005    0.33456001    -0.12810000
opls_145-80    C    0.83258009    0.50010989    0.33711999    0.23100000
opls_181-81    C    0.50016000    0.80314994    0.74917996    -0.16980000
MOF2_C_3-82    C    0.50010989    0.69215986    0.65592999    -0.31670000
MOF2_C_3-83    C    0.83266994    0.50014998    0.38340000    -0.28930000
opls_145-84    C    0.59371013    0.99992018    0.75806003    -0.16280000
opls_166-85    C    0.62923005    0.99989011    0.77225994    0.31990000
opls_700-86    C    0.61169990    0.99989011    0.79022997    -0.02750000
opls_145-87    C    0.55948992    0.99993986    0.79394996    -0.05720000
opls_700-88    C    0.52588002    0.99997995    0.77963001    -0.00070000
opls_700-89    C    0.54212013    0.99996993    0.76206999    0.06290000
opls_142-90    C    0.64824999    0.99988009    0.80505995    0.03910000
opls_145-91    C    0.64838995    0.99985002    0.85445996    -0.12960000
opls_145-92    C    0.68128002    0.99989011    0.86903994    0.08730000
opls_700-93    C    0.73426996    0.99997995    0.86712994    -0.04970000
opls_700-94    C    0.75319003    0.00002005    0.84907996    0.15260000
opls_145-95    C    0.71975015    0.99997995    0.83456001    -0.12810000
opls_145-96    C    0.66741991    0.99989011    0.83711999    0.23100000
opls_181-97    C    0.99984000    0.69685006    0.24917996    -0.16980000
MOF2_C_3-98    C    0.99989011    0.80784014    0.15592999    -0.31670000
MOF2_C_3-99    C    0.66733006    0.99985002    0.88340000    -0.28930000
opls_145-100    C    0.99992018    0.90628987    0.00806003    -0.16280000
opls_166-101    C    0.99989011    0.87076995    0.02225994    0.31990000
opls_700-102    C    0.99989011    0.88830010    0.04022997    -0.02750000
opls_145-103    C    0.99993986    0.94051008    0.04394996    -0.05720000
opls_700-104    C    0.99997995    0.97411998    0.02963001    -0.00070000
opls_700-105    C    0.99996993    0.95787987    0.01206999    0.06290000
opls_142-106    C    0.99988009    0.85175001    0.05505995    0.03910000
opls_145-107    C    0.99985002    0.85161005    0.10445996    -0.12960000
opls_145-108    C    0.99989011    0.81871998    0.11903994    0.08730000
opls_700-109    C    0.99997995    0.76573004    0.11712994    -0.04970000
opls_700-110    C    0.00002005    0.74680997    0.09907996    0.15260000
opls_145-111    C    0.99997995    0.78024985    0.08456001    -0.12810000
opls_145-112    C    0.99989011    0.83258009    0.08711999    0.23100000
opls_181-113    C    0.69685006    0.50016000    0.49917996    -0.16980000
MOF2_C_3-114    C    0.80784014    0.50010989    0.40592999    -0.31670000
MOF2_C_3-115    C    0.99985002    0.83266994    0.13340000    -0.28930000
opls_145-116    C    0.50007982    0.59371013    0.50806003    -0.16280000
opls_166-117    C    0.50010989    0.62923005    0.52225994    0.31990000
opls_700-118    C    0.50010989    0.61169990    0.54022997    -0.02750000
opls_145-119    C    0.50006014    0.55948992    0.54394996    -0.05720000
opls_700-120    C    0.50002005    0.52588002    0.52963001    -0.00070000
opls_700-121    C    0.50003007    0.54212013    0.51206999    0.06290000
opls_142-122    C    0.50011991    0.64824999    0.55505995    0.03910000
opls_145-123    C    0.50014998    0.64838995    0.60445996    -0.12960000
opls_145-124    C    0.50010989    0.68128002    0.61903994    0.08730000
opls_700-125    C    0.50002005    0.73426996    0.61712994    -0.04970000
opls_700-126    C    0.49997995    0.75319003    0.59907996    0.15260000
opls_145-127    C    0.50002005    0.71975015    0.58456001    -0.12810000
opls_145-128    C    0.50010989    0.66741991    0.58711999    0.23100000
opls_181-129    C    0.80314994    0.99984000    0.99917996    -0.16980000
MOF2_C_3-130    C    0.69215986    0.99989011    0.90592999    -0.31670000
MOF2_C_3-131    C    0.50014998    0.66733006    0.63340000    -0.28930000
opls_145-132    C    0.50007982    0.09371013    0.74193997    -0.16280000
opls_166-133    C    0.50010989    0.12923005    0.72774006    0.31990000
opls_700-134    C    0.50010989    0.11169990    0.70977003    -0.02750000
opls_145-135    C    0.50006014    0.05948992    0.70605004    -0.05720000
opls_700-136    C    0.50002005    0.02588002    0.72036999    -0.00070000
opls_700-137    C    0.50003007    0.04212013    0.73793001    0.06290000
opls_142-138    C    0.50011991    0.14824999    0.69494005    0.03910000
opls_145-139    C    0.50014998    0.14838995    0.64554004    -0.12960000
opls_145-140    C    0.50010989    0.18128002    0.63096006    0.08730000
opls_700-141    C    0.50002005    0.23426996    0.63287006    -0.04970000
opls_700-142    C    0.49997995    0.25319003    0.65092004    0.15260000
opls_145-143    C    0.50002005    0.21975015    0.66543999    -0.12810000
opls_145-144    C    0.50010989    0.16741991    0.66288001    0.23100000
opls_181-145    C    0.80314994    0.49984000    0.25082004    -0.16980000
MOF2_C_3-146    C    0.69215986    0.49989011    0.34407001    -0.31670000
MOF2_C_3-147    C    0.50014998    0.16733006    0.61660000    -0.28930000
opls_145-148    C    0.99992018    0.40628987    0.24193997    -0.16280000
opls_166-149    C    0.99989011    0.37076995    0.22774006    0.31990000
opls_700-150    C    0.99989011    0.38830010    0.20977003    -0.02750000
opls_145-151    C    0.99993986    0.44051008    0.20605004    -0.05720000
opls_700-152    C    0.99997995    0.47411998    0.22036999    -0.00070000
opls_700-153    C    0.99996993    0.45787987    0.23793001    0.06290000
opls_142-154    C    0.99988009    0.35175001    0.19494005    0.03910000
opls_145-155    C    0.99985002    0.35161005    0.14554004    -0.12960000
opls_145-156    C    0.99989011    0.31871998    0.13096006    0.08730000
opls_700-157    C    0.99997995    0.26573004    0.13287006    -0.04970000
opls_700-158    C    0.00002005    0.24680997    0.15092004    0.15260000
opls_145-159    C    0.99997995    0.28024985    0.16543999    -0.12810000
opls_145-160    C    0.99989011    0.33258009    0.16288001    0.23100000
opls_181-161    C    0.69685006    0.00016000    0.75082004    -0.16980000
MOF2_C_3-162    C    0.80784014    0.00010989    0.84407001    -0.31670000
MOF2_C_3-163    C    0.99985002    0.33266994    0.11660000    -0.28930000
opls_145-164    C    0.90628987    0.00007982    0.99193997    -0.16280000
opls_166-165    C    0.87076995    0.00010989    0.97774006    0.31990000
opls_700-166    C    0.88830010    0.00010989    0.95977003    -0.02750000
opls_145-167    C    0.94051008    0.00006014    0.95605004    -0.05720000
opls_700-168    C    0.97411998    0.00002005    0.97036999    -0.00070000
opls_700-169    C    0.95787987    0.00003007    0.98793001    0.06290000
opls_142-170    C    0.85175001    0.00011991    0.94494005    0.03910000
opls_145-171    C    0.85161005    0.00014998    0.89554004    -0.12960000
opls_145-172    C    0.81871998    0.00010989    0.88096006    0.08730000
opls_700-173    C    0.76573004    0.00002005    0.88287006    -0.04970000
opls_700-174    C    0.74680997    0.99997995    0.90092004    0.15260000
opls_145-175    C    0.78024985    0.00002005    0.91543999    -0.12810000
opls_145-176    C    0.83258009    0.00010989    0.91288001    0.23100000
opls_181-177    C    0.50016000    0.30314994    0.50082004    -0.16980000
MOF2_C_3-178    C    0.50010989    0.19215986    0.59407001    -0.31670000
MOF2_C_3-179    C    0.83266994    0.00014998    0.86660000    -0.28930000
opls_145-180    C    0.59371013    0.49992018    0.49193997    -0.16280000
opls_166-181    C    0.62923005    0.49989011    0.47774006    0.31990000
opls_700-182    C    0.61169990    0.49989011    0.45977003    -0.02750000
opls_145-183    C    0.55948992    0.49993986    0.45605004    -0.05720000
opls_700-184    C    0.52588002    0.49997995    0.47036999    -0.00070000
opls_700-185    C    0.54212013    0.49996993    0.48793001    0.06290000
opls_142-186    C    0.64824999    0.49988009    0.44494005    0.03910000
opls_145-187    C    0.64838995    0.49985002    0.39554004    -0.12960000
opls_145-188    C    0.68128002    0.49989011    0.38096006    0.08730000
opls_700-189    C    0.73426996    0.49997995    0.38287006    -0.04970000
opls_700-190    C    0.75319003    0.50002005    0.40092004    0.15260000
opls_145-191    C    0.71975015    0.49997995    0.41543999    -0.12810000
opls_145-192    C    0.66741991    0.49989011    0.41288001    0.23100000
opls_181-193    C    0.99984000    0.19685006    0.00082004    -0.16980000
MOF2_C_3-194    C    0.99989011    0.30784014    0.09407001    -0.31670000
MOF2_C_3-195    C    0.66733006    0.49985002    0.36660000    -0.28930000
opls_145-196    C    0.40628987    0.00007982    0.75806003    -0.16280000
opls_166-197    C    0.37076995    0.00010989    0.77225994    0.31990000
opls_700-198    C    0.38830010    0.00010989    0.79022997    -0.02750000
opls_145-199    C    0.44051008    0.00006014    0.79394996    -0.05720000
opls_700-200    C    0.47411998    0.00002005    0.77963001    -0.00070000
opls_700-201    C    0.45787987    0.00003007    0.76206999    0.06290000
opls_142-202    C    0.35175001    0.00011991    0.80505995    0.03910000
opls_145-203    C    0.35161005    0.00014998    0.85445996    -0.12960000
opls_145-204    C    0.31871998    0.00010989    0.86903994    0.08730000
opls_700-205    C    0.26573004    0.00002005    0.86712994    -0.04970000
opls_700-206    C    0.24680997    0.99997995    0.84907996    0.15260000
opls_145-207    C    0.28024985    0.00002005    0.83456001    -0.12810000
opls_145-208    C    0.33258009    0.00010989    0.83711999    0.23100000
opls_181-209    C    0.00016000    0.30314994    0.24917996    -0.16980000
MOF2_C_3-210    C    0.00010989    0.19215986    0.15592999    -0.31670000
MOF2_C_3-211    C    0.33266994    0.00014998    0.88340000    -0.28930000
opls_145-212    C    0.09371013    0.49992018    0.25806003    -0.16280000
opls_166-213    C    0.12923005    0.49989011    0.27225994    0.31990000
opls_700-214    C    0.11169990    0.49989011    0.29022997    -0.02750000
opls_145-215    C    0.05948992    0.49993986    0.29394996    -0.05720000
opls_700-216    C    0.02588002    0.49997995    0.27963001    -0.00070000
opls_700-217    C    0.04212013    0.49996993    0.26206999    0.06290000
opls_142-218    C    0.14824999    0.49988009    0.30505995    0.03910000
opls_145-219    C    0.14838995    0.49985002    0.35445996    -0.12960000
opls_145-220    C    0.18128002    0.49989011    0.36903994    0.08730000
opls_700-221    C    0.23426996    0.49997995    0.36712994    -0.04970000
opls_700-222    C    0.25319003    0.50002005    0.34907996    0.15260000
opls_145-223    C    0.21975015    0.49997995    0.33456001    -0.12810000
opls_145-224    C    0.16741991    0.49989011    0.33711999    0.23100000
opls_181-225    C    0.49984000    0.19685006    0.74917996    -0.16980000
MOF2_C_3-226    C    0.49989011    0.30784014    0.65592999    -0.31670000
MOF2_C_3-227    C    0.16733006    0.49985002    0.38340000    -0.28930000
opls_145-228    C    0.49992018    0.40628987    0.50806003    -0.16280000
opls_166-229    C    0.49989011    0.37076995    0.52225994    0.31990000
opls_700-230    C    0.49989011    0.38830010    0.54022997    -0.02750000
opls_145-231    C    0.49993986    0.44051008    0.54394996    -0.05720000
opls_700-232    C    0.49997995    0.47411998    0.52963001    -0.00070000
opls_700-233    C    0.49996993    0.45787987    0.51206999    0.06290000
opls_142-234    C    0.49988009    0.35175001    0.55505995    0.03910000
opls_145-235    C    0.49985002    0.35161005    0.60445996    -0.12960000
opls_145-236    C    0.49989011    0.31871998    0.61903994    0.08730000
opls_700-237    C    0.49997995    0.26573004    0.61712994    -0.04970000
opls_700-238    C    0.50002005    0.24680997    0.59907996    0.15260000
opls_145-239    C    0.49997995    0.28024985    0.58456001    -0.12810000
opls_145-240    C    0.49989011    0.33258009    0.58711999    0.23100000
opls_181-241    C    0.19685006    0.00016000    0.99917996    -0.16980000
MOF2_C_3-242    C    0.30784014    0.00010989    0.90592999    -0.31670000
MOF2_C_3-243    C    0.49985002    0.33266994    0.63340000    -0.28930000
opls_145-244    C    0.00007982    0.09371013    0.00806003    -0.16280000
opls_166-245    C    0.00010989    0.12923005    0.02225994    0.31990000
opls_700-246    C    0.00010989    0.11169990    0.04022997    -0.02750000
opls_145-247    C    0.00006014    0.05948992    0.04394996    -0.05720000
opls_700-248    C    0.00002005    0.02588002    0.02963001    -0.00070000
opls_700-249    C    0.00003007    0.04212013    0.01206999    0.06290000
opls_142-250    C    0.00011991    0.14824999    0.05505995    0.03910000
opls_145-251    C    0.00014998    0.14838995    0.10445996    -0.12960000
opls_145-252    C    0.00010989    0.18128002    0.11903994    0.08730000
opls_700-253    C    0.00002005    0.23426996    0.11712994    -0.04970000
opls_700-254    C    0.99997995    0.25319003    0.09907996    0.15260000
opls_145-255    C    0.00002005    0.21975015    0.08456001    -0.12810000
opls_145-256    C    0.00010989    0.16741991    0.08711999    0.23100000
opls_181-257    C    0.30314994    0.49984000    0.49917996    -0.16980000
MOF2_C_3-258    C    0.19215986    0.49989011    0.40592999    -0.31670000
MOF2_C_3-259    C    0.00014998    0.16733006    0.13340000    -0.28930000
opls_750-260    N    0.50012994    0.63297992    0.57234002    -0.19480000
opls_750-261    N    0.99987006    0.86702008    0.07234002    -0.19480000
opls_750-262    N    0.36702008    0.00012994    0.82234002    -0.19480000
opls_750-263    N    0.13297992    0.49987006    0.32234002    -0.19480000
opls_750-264    N    0.49987006    0.86702008    0.67765998    -0.19480000
opls_750-265    N    0.00012994    0.63297992    0.17765998    -0.19480000
opls_750-266    N    0.63297992    0.49987006    0.42765998    -0.19480000
opls_750-267    N    0.86702008    0.00012994    0.92765998    -0.19480000
opls_750-268    N    0.86702008    0.50012994    0.32234002    -0.19480000
opls_750-269    N    0.63297992    0.99987006    0.82234002    -0.19480000
opls_750-270    N    0.49987006    0.36702008    0.57234002    -0.19480000
opls_750-271    N    0.00012994    0.13297992    0.07234002    -0.19480000
opls_750-272    N    0.99987006    0.36702008    0.17765998    -0.19480000
opls_750-273    N    0.50012994    0.13297992    0.67765998    -0.19480000
opls_750-274    N    0.13297992    0.99987006    0.92765998    -0.19480000
opls_750-275    N    0.36702008    0.50012994    0.42765998    -0.19480000
opls_179-276    O    0.50020009    0.68173999    0.51913004    -0.18120000
opls_179-277    O    0.99979991    0.81826001    0.01913004    -0.18120000
opls_179-278    O    0.31826001    0.00020009    0.76913004    -0.18120000
opls_179-279    O    0.18173999    0.49979991    0.26913004    -0.18120000
opls_179-280    O    0.49979991    0.81826001    0.73086996    -0.18120000
opls_179-281    O    0.00020009    0.68173999    0.23086996    -0.18120000
opls_179-282    O    0.68173999    0.49979991    0.48086996    -0.18120000
opls_179-283    O    0.81826001    0.00020009    0.98086996    -0.18120000
opls_179-284    O    0.81826001    0.50020009    0.26913004    -0.18120000
opls_179-285    O    0.68173999    0.99979991    0.76913004    -0.18120000
opls_179-286    O    0.49979991    0.31826001    0.51913004    -0.18120000
opls_179-287    O    0.00020009    0.18173999    0.01913004    -0.18120000
opls_179-288    O    0.99979991    0.31826001    0.23086996    -0.18120000
opls_179-289    O    0.50020009    0.18173999    0.73086996    -0.18120000
opls_179-290    O    0.18173999    0.99979991    0.98086996    -0.18120000
opls_179-291    O    0.31826001    0.50020009    0.48086996    -0.18120000
opls_185-292    H    0.51860006    0.66870995    0.49221002    0.06940000
opls_185-293    H    0.51947990    0.73261016    0.49955001    0.06940000
opls_185-294    H    0.46115009    0.70127000    0.49610996    0.06940000
MOF2_H_b-295    H    0.48048001    0.82902996    0.60495005    -0.02030000
MOF2_H_-296    H    0.48066006    0.81307012    0.58072999    0.13070000
MOF2_H_-297    H    0.53847013    0.82118016    0.59288995    0.13070000
opls_146-298    H    0.10566990    0.99990013    0.00655003    0.04990000
opls_146-299    H    0.04604002    0.99994989    0.94162995    0.04960000
opls_144-300    H    0.18820990    0.99988009    0.94826995    0.03330000
opls_146-301    H    0.10807997    0.99978988    0.89287003    0.04990000
opls_146-302    H    0.23330995    0.00002005    0.92985006    0.04960000
MOF2_H_b-303    H    0.51907005    0.80585997    0.60756004    0.11290000
MOF2_H_-304    H    0.51921001    0.86871998    0.61605001    0.13070000
MOF2_H_-305    H    0.46123993    0.83738018    0.61184005    -0.10890000
opls_185-306    H    0.98139994    0.83129005    0.99221002    0.06940000
opls_185-307    H    0.98052010    0.76738984    0.99955001    0.06940000
opls_185-308    H    0.03884991    0.79873000    0.99610996    0.06940000
MOF2_H_b-309    H    0.01951999    0.67097004    0.10495005    -0.02030000
MOF2_H_-310    H    0.01933994    0.68692988    0.08072999    0.13070000
MOF2_H_-311    H    0.96152987    0.67881984    0.09288995    0.13070000
opls_146-312    H    0.39433010    0.50009987    0.50655003    0.04990000
opls_146-313    H    0.45395998    0.50005011    0.44162995    0.04960000
opls_144-314    H    0.31179010    0.50011991    0.44826995    0.03330000
opls_146-315    H    0.39192003    0.50021012    0.39287003    0.04990000
opls_146-316    H    0.26669005    0.49997995    0.42985006    0.04960000
MOF2_H_b-317    H    0.98092995    0.69414003    0.10756004    0.11290000
MOF2_H_-318    H    0.98078999    0.63128002    0.11605001    0.13070000
MOF2_H_-319    H    0.03876007    0.66261982    0.11184005    -0.10890000
opls_185-320    H    0.33129005    0.01860006    0.74221002    0.06940000
opls_185-321    H    0.26738984    0.01947990    0.74955001    0.06940000
opls_185-322    H    0.29873000    0.96115009    0.74610996    0.06940000
MOF2_H_b-323    H    0.17097004    0.98048001    0.85495005    -0.02030000
MOF2_H_-324    H    0.18692988    0.98066006    0.83072999    0.13070000
MOF2_H_-325    H    0.17881984    0.03847013    0.84288995    0.13070000
opls_146-326    H    0.00009987    0.60566990    0.25655003    0.04990000
opls_146-327    H    0.00005011    0.54604002    0.19162995    0.04960000
opls_144-328    H    0.00011991    0.68820990    0.19826995    0.03330000
opls_146-329    H    0.00021012    0.60807997    0.14287003    0.04990000
opls_146-330    H    0.99997995    0.73330995    0.17985006    0.04960000
MOF2_H_b-331    H    0.19414003    0.01907005    0.85756004    0.11290000
MOF2_H_-332    H    0.13128002    0.01921001    0.86605001    0.13070000
MOF2_H_-333    H    0.16261982    0.96123993    0.86184005    -0.10890000
opls_185-334    H    0.16870995    0.48139994    0.24221002    0.06940000
opls_185-335    H    0.23261016    0.48052010    0.24955001    0.06940000
opls_185-336    H    0.20127000    0.53884991    0.24610996    0.06940000
MOF2_H_b-337    H    0.32902996    0.51951999    0.35495005    -0.02030000
MOF2_H_-338    H    0.31307012    0.51933994    0.33072999    0.13070000
MOF2_H_-339    H    0.32118016    0.46152987    0.34288995    0.13070000
opls_146-340    H    0.49990013    0.89433010    0.75655003    0.04990000
opls_146-341    H    0.49994989    0.95395998    0.69162995    0.04960000
opls_144-342    H    0.49988009    0.81179010    0.69826995    0.03330000
opls_146-343    H    0.49978988    0.89192003    0.64287003    0.04990000
opls_146-344    H    0.50002005    0.76669005    0.67985006    0.04960000
MOF2_H_b-345    H    0.30585997    0.48092995    0.35756004    0.11290000
MOF2_H_-346    H    0.36871998    0.48078999    0.36605001    0.13070000
MOF2_H_-347    H    0.33738018    0.53876007    0.36184005    -0.10890000
opls_185-348    H    0.48139994    0.83129005    0.75778998    0.06940000
opls_185-349    H    0.48052010    0.76738984    0.75044999    0.06940000
opls_185-350    H    0.53884991    0.79873000    0.75389004    0.06940000
MOF2_H_b-351    H    0.51951999    0.67097004    0.64504995    -0.02030000
MOF2_H_-352    H    0.51933994    0.68692988    0.66927001    0.13070000
MOF2_H_-353    H    0.46152987    0.67881984    0.65711005    0.13070000
opls_146-354    H    0.89433010    0.50009987    0.24344997    0.04990000
opls_146-355    H    0.95395998    0.50005011    0.30837005    0.04960000
opls_144-356    H    0.81179010    0.50011991    0.30173005    0.03330000
opls_146-357    H    0.89192003    0.50021012    0.35712997    0.04990000
opls_146-358    H    0.76669005    0.49997995    0.32014994    0.04960000
MOF2_H_b-359    H    0.48092995    0.69414003    0.64243996    0.11290000
MOF2_H_-360    H    0.48078999    0.63128002    0.63394999    0.13070000
MOF2_H_-361    H    0.53876007    0.66261982    0.63815995    -0.10890000
opls_185-362    H    0.01860006    0.66870995    0.25778998    0.06940000
opls_185-363    H    0.01947990    0.73261016    0.25044999    0.06940000
opls_185-364    H    0.96115009    0.70127000    0.25389004    0.06940000
MOF2_H_b-365    H    0.98048001    0.82902996    0.14504995    -0.02030000
MOF2_H_-366    H    0.98066006    0.81307012    0.16927001    0.13070000
MOF2_H_-367    H    0.03847013    0.82118016    0.15711005    0.13070000
opls_146-368    H    0.60566990    0.99990013    0.74344997    0.04990000
opls_146-369    H    0.54604002    0.99994989    0.80837005    0.04960000
opls_144-370    H    0.68820990    0.99988009    0.80173005    0.03330000
opls_146-371    H    0.60807997    0.99978988    0.85712997    0.04990000
opls_146-372    H    0.73330995    0.00002005    0.82014994    0.04960000
MOF2_H_b-373    H    0.01907005    0.80585997    0.14243996    0.11290000
MOF2_H_-374    H    0.01921001    0.86871998    0.13394999    0.13070000
MOF2_H_-375    H    0.96123993    0.83738018    0.13815995    -0.10890000
opls_185-376    H    0.66870995    0.48139994    0.50778998    0.06940000
opls_185-377    H    0.73261016    0.48052010    0.50044999    0.06940000
opls_185-378    H    0.70127000    0.53884991    0.50389004    0.06940000
MOF2_H_b-379    H    0.82902996    0.51951999    0.39504995    -0.02030000
MOF2_H_-380    H    0.81307012    0.51933994    0.41927001    0.13070000
MOF2_H_-381    H    0.82118016    0.46152987    0.40711005    0.13070000
opls_146-382    H    0.99990013    0.89433010    0.99344997    0.04990000
opls_146-383    H    0.99994989    0.95395998    0.05837005    0.04960000
opls_144-384    H    0.99988009    0.81179010    0.05173005    0.03330000
opls_146-385    H    0.99978988    0.89192003    0.10712997    0.04990000
opls_146-386    H    0.00002005    0.76669005    0.07014994    0.04960000
MOF2_H_b-387    H    0.80585997    0.48092995    0.39243996    0.11290000
MOF2_H_-388    H    0.86871998    0.48078999    0.38394999    0.13070000
MOF2_H_-389    H    0.83738018    0.53876007    0.38815995    -0.10890000
opls_185-390    H    0.83129005    0.01860006    0.00778998    0.06940000
opls_185-391    H    0.76738984    0.01947990    0.00044999    0.06940000
opls_185-392    H    0.79873000    0.96115009    0.00389004    0.06940000
MOF2_H_b-393    H    0.67097004    0.98048001    0.89504995    -0.02030000
MOF2_H_-394    H    0.68692988    0.98066006    0.91927001    0.13070000
MOF2_H_-395    H    0.67881984    0.03847013    0.90711005    0.13070000
opls_146-396    H    0.50009987    0.60566990    0.49344997    0.04990000
opls_146-397    H    0.50005011    0.54604002    0.55837005    0.04960000
opls_144-398    H    0.50011991    0.68820990    0.55173005    0.03330000
opls_146-399    H    0.50021012    0.60807997    0.60712997    0.04990000
opls_146-400    H    0.49997995    0.73330995    0.57014994    0.04960000
MOF2_H_b-401    H    0.69414003    0.01907005    0.89243996    0.11290000
MOF2_H_-402    H    0.63128002    0.01921001    0.88394999    0.13070000
MOF2_H_-403    H    0.66261982    0.96123993    0.88815995    -0.10890000
opls_185-404    H    0.83129005    0.51860006    0.24221002    0.06940000
opls_185-405    H    0.76738984    0.51947990    0.24955001    0.06940000
opls_185-406    H    0.79873000    0.46115009    0.24610996    0.06940000
MOF2_H_b-407    H    0.67097004    0.48048001    0.35495005    -0.02030000
MOF2_H_-408    H    0.68692988    0.48066006    0.33072999    0.13070000
MOF2_H_-409    H    0.67881984    0.53847013    0.34288995    0.13070000
opls_146-410    H    0.50009987    0.10566990    0.75655003    0.04990000
opls_146-411    H    0.50005011    0.04604002    0.69162995    0.04960000
opls_144-412    H    0.50011991    0.18820990    0.69826995    0.03330000
opls_146-413    H    0.50021012    0.10807997    0.64287003    0.04990000
opls_146-414    H    0.49997995    0.23330995    0.67985006    0.04960000
MOF2_H_b-415    H    0.69414003    0.51907005    0.35756004    0.11290000
MOF2_H_-416    H    0.63128002    0.51921001    0.36605001    0.13070000
MOF2_H_-417    H    0.66261982    0.46123993    0.36184005    -0.10890000
opls_185-418    H    0.66870995    0.98139994    0.74221002    0.06940000
opls_185-419    H    0.73261016    0.98052010    0.74955001    0.06940000
opls_185-420    H    0.70127000    0.03884991    0.74610996    0.06940000
MOF2_H_b-421    H    0.82902996    0.01951999    0.85495005    -0.02030000
MOF2_H_-422    H    0.81307012    0.01933994    0.83072999    0.13070000
MOF2_H_-423    H    0.82118016    0.96152987    0.84288995    0.13070000
opls_146-424    H    0.99990013    0.39433010    0.25655003    0.04990000
opls_146-425    H    0.99994989    0.45395998    0.19162995    0.04960000
opls_144-426    H    0.99988009    0.31179010    0.19826995    0.03330000
opls_146-427    H    0.99978988    0.39192003    0.14287003    0.04990000
opls_146-428    H    0.00002005    0.26669005    0.17985006    0.04960000
MOF2_H_b-429    H    0.80585997    0.98092995    0.85756004    0.11290000
MOF2_H_-430    H    0.86871998    0.98078999    0.86605001    0.13070000
MOF2_H_-431    H    0.83738018    0.03876007    0.86184005    -0.10890000
opls_185-432    H    0.48139994    0.33129005    0.49221002    0.06940000
opls_185-433    H    0.48052010    0.26738984    0.49955001    0.06940000
opls_185-434    H    0.53884991    0.29873000    0.49610996    0.06940000
MOF2_H_b-435    H    0.51951999    0.17097004    0.60495005    -0.02030000
MOF2_H_-436    H    0.51933994    0.18692988    0.58072999    0.13070000
MOF2_H_-437    H    0.46152987    0.17881984    0.59288995    0.13070000
opls_146-438    H    0.89433010    0.00009987    0.00655003    0.04990000
opls_146-439    H    0.95395998    0.00005011    0.94162995    0.04960000
opls_144-440    H    0.81179010    0.00011991    0.94826995    0.03330000
opls_146-441    H    0.89192003    0.00021012    0.89287003    0.04990000
opls_146-442    H    0.76669005    0.99997995    0.92985006    0.04960000
MOF2_H_b-443    H    0.48092995    0.19414003    0.60756004    0.11290000
MOF2_H_-444    H    0.48078999    0.13128002    0.61605001    0.13070000
MOF2_H_-445    H    0.53876007    0.16261982    0.61184005    -0.10890000
opls_185-446    H    0.01860006    0.16870995    0.99221002    0.06940000
opls_185-447    H    0.01947990    0.23261016    0.99955001    0.06940000
opls_185-448    H    0.96115009    0.20127000    0.99610996    0.06940000
MOF2_H_b-449    H    0.98048001    0.32902996    0.10495005    -0.02030000
MOF2_H_-450    H    0.98066006    0.31307012    0.08072999    0.13070000
MOF2_H_-451    H    0.03847013    0.32118016    0.09288995    0.13070000
opls_146-452    H    0.60566990    0.49990013    0.50655003    0.04990000
opls_146-453    H    0.54604002    0.49994989    0.44162995    0.04960000
opls_144-454    H    0.68820990    0.49988009    0.44826995    0.03330000
opls_146-455    H    0.60807997    0.49978988    0.39287003    0.04990000
opls_146-456    H    0.73330995    0.50002005    0.42985006    0.04960000
MOF2_H_b-457    H    0.01907005    0.30585997    0.10756004    0.11290000
MOF2_H_-458    H    0.01921001    0.36871998    0.11605001    0.13070000
MOF2_H_-459    H    0.96123993    0.33738018    0.11184005    -0.10890000
opls_185-460    H    0.98139994    0.33129005    0.25778998    0.06940000
opls_185-461    H    0.98052010    0.26738984    0.25044999    0.06940000
opls_185-462    H    0.03884991    0.29873000    0.25389004    0.06940000
MOF2_H_b-463    H    0.01951999    0.17097004    0.14504995    -0.02030000
MOF2_H_-464    H    0.01933994    0.18692988    0.16927001    0.13070000
MOF2_H_-465    H    0.96152987    0.17881984    0.15711005    0.13070000
opls_146-466    H    0.39433010    0.00009987    0.74344997    0.04990000
opls_146-467    H    0.45395998    0.00005011    0.80837005    0.04960000
opls_144-468    H    0.31179010    0.00011991    0.80173005    0.03330000
opls_146-469    H    0.39192003    0.00021012    0.85712997    0.04990000
opls_146-470    H    0.26669005    0.99997995    0.82014994    0.04960000
MOF2_H_b-471    H    0.98092995    0.19414003    0.14243996    0.11290000
MOF2_H_-472    H    0.98078999    0.13128002    0.13394999    0.13070000
MOF2_H_-473    H    0.03876007    0.16261982    0.13815995    -0.10890000
opls_185-474    H    0.51860006    0.16870995    0.75778998    0.06940000
opls_185-475    H    0.51947990    0.23261016    0.75044999    0.06940000
opls_185-476    H    0.46115009    0.20127000    0.75389004    0.06940000
MOF2_H_b-477    H    0.48048001    0.32902996    0.64504995    -0.02030000
MOF2_H_-478    H    0.48066006    0.31307012    0.66927001    0.13070000
MOF2_H_-479    H    0.53847013    0.32118016    0.65711005    0.13070000
opls_146-480    H    0.10566990    0.49990013    0.24344997    0.04990000
opls_146-481    H    0.04604002    0.49994989    0.30837005    0.04960000
opls_144-482    H    0.18820990    0.49988009    0.30173005    0.03330000
opls_146-483    H    0.10807997    0.49978988    0.35712997    0.04990000
opls_146-484    H    0.23330995    0.50002005    0.32014994    0.04960000
MOF2_H_b-485    H    0.51907005    0.30585997    0.64243996    0.11290000
MOF2_H_-486    H    0.51921001    0.36871998    0.63394999    0.13070000
MOF2_H_-487    H    0.46123993    0.33738018    0.63815995    -0.10890000
opls_185-488    H    0.16870995    0.98139994    0.00778998    0.06940000
opls_185-489    H    0.23261016    0.98052010    0.00044999    0.06940000
opls_185-490    H    0.20127000    0.03884991    0.00389004    0.06940000
MOF2_H_b-491    H    0.32902996    0.01951999    0.89504995    -0.02030000
MOF2_H_-492    H    0.31307012    0.01933994    0.91927001    0.13070000
MOF2_H_-493    H    0.32118016    0.96152987    0.90711005    0.13070000
opls_146-494    H    0.49990013    0.39433010    0.49344997    0.04990000
opls_146-495    H    0.49994989    0.45395998    0.55837005    0.04960000
opls_144-496    H    0.49988009    0.31179010    0.55173005    0.03330000
opls_146-497    H    0.49978988    0.39192003    0.60712997    0.04990000
opls_146-498    H    0.50002005    0.26669005    0.57014994    0.04960000
MOF2_H_b-499    H    0.30585997    0.98092995    0.89243996    0.11290000
MOF2_H_-500    H    0.36871998    0.98078999    0.88394999    0.13070000
MOF2_H_-501    H    0.33738018    0.03876007    0.88815995    -0.10890000
opls_185-502    H    0.33129005    0.51860006    0.50778998    0.06940000
opls_185-503    H    0.26738984    0.51947990    0.50044999    0.06940000
opls_185-504    H    0.29873000    0.46115009    0.50389004    0.06940000
MOF2_H_b-505    H    0.17097004    0.48048001    0.39504995    -0.02030000
MOF2_H_-506    H    0.18692988    0.48066006    0.41927001    0.13070000
MOF2_H_-507    H    0.17881984    0.53847013    0.40711005    0.13070000
opls_146-508    H    0.00009987    0.10566990    0.99344997    0.04990000
opls_146-509    H    0.00005011    0.04604002    0.05837005    0.04960000
opls_144-510    H    0.00011991    0.18820990    0.05173005    0.03330000
opls_146-511    H    0.00021012    0.10807997    0.10712997    0.04990000
opls_146-512    H    0.99997995    0.23330995    0.07014994    0.04960000
MOF2_H_b-513    H    0.19414003    0.51907005    0.39243996    0.11290000
MOF2_H_-514    H    0.13128002    0.51921001    0.38394999    0.13070000
MOF2_H_-515    H    0.16261982    0.46123993    0.38815995    -0.10890000
