#======================================================================
# Crystal Data Generated By AuToFF
#----------------------------------------------------------------------

data_AuToFF_phase_1

_cell_length_a                         30.1051
_cell_length_b                         30.1051
_cell_length_c                         30.1051
_cell_angle_alpha                      90.00
_cell_angle_beta                       90.00
_cell_angle_gamma                      90.00
_symmetry_space_group_name_H-M_alt     'P 1'
_symmetry_space_group_IT_number        1

loop_
_space_group_symop_operation_xyz
   'x, y, z'

loop_
   _atom_site_label
   _atom_site_type_symbol
   _atom_site_fract_x
   _atom_site_fract_y
   _atom_site_fract_z
   _atom_site_charge
opls_145-0    C    0.69648996    0.60564987    0.23310004    -0.04180000
opls_700-1    C    0.65689003    0.53938004    0.25813998    0.04350000
opls_145-2    C    0.68226015    0.54060010    0.29758014    -0.13550000
opls_145-3    C    0.71956014    0.60780997    0.27351014    -0.26430000
opls_145-4    C    0.71259986    0.57472986    0.30550006    -0.05080000
opls_135-5    C    0.74456986    0.76781011    0.18027012    -0.42120000
opls_135-6    C    0.86498999    0.58811995    0.34550990    -0.42120000
opls_145-7    C    0.32157010    0.58393993    0.52475992    -0.13620000
opls_139-8    C    0.72867986    0.77132014    0.22867986    -0.10250000
opls_139-9    C    0.86445984    0.63554016    0.36445984    -0.10250000
opls_701-10    C    0.37499992    0.00000000    0.25000017    0.01690000
opls_145-11    C    0.80351004    0.39435013    0.73310004    -0.04180000
opls_700-12    C    0.84310997    0.46061996    0.75813998    0.04350000
opls_145-13    C    0.81773985    0.45939990    0.79758014    -0.13550000
opls_145-14    C    0.78043986    0.39219003    0.77351014    -0.26430000
opls_145-15    C    0.78740014    0.42527014    0.80550006    -0.05080000
opls_135-16    C    0.75543014    0.23218989    0.68027012    -0.42120000
opls_135-17    C    0.63501001    0.41188005    0.84550990    -0.42120000
opls_145-18    C    0.17842990    0.41606007    0.02475992    -0.13620000
opls_139-19    C    0.77132014    0.22867986    0.72867986    -0.10250000
opls_139-20    C    0.63554016    0.36445984    0.86445984    -0.10250000
opls_701-21    C    0.12500008    0.00000000    0.74999983    0.01690000
opls_145-22    C    0.30351004    0.10564987    0.26689996    -0.04180000
opls_700-23    C    0.34310997    0.03938004    0.24186002    0.04350000
opls_145-24    C    0.31773985    0.04060010    0.20241986    -0.13550000
opls_145-25    C    0.28043986    0.10780997    0.22648986    -0.26430000
opls_145-26    C    0.28740014    0.07472986    0.19449994    -0.05080000
opls_135-27    C    0.25543014    0.26781011    0.31972988    -0.42120000
opls_135-28    C    0.13501001    0.08811995    0.15449010    -0.42120000
opls_145-29    C    0.67842990    0.08393993    0.97524008    -0.13620000
opls_139-30    C    0.27132014    0.27132014    0.27132014    -0.10250000
opls_139-31    C    0.13554016    0.13554016    0.13554016    -0.10250000
opls_701-32    C    0.62500008    0.50000000    0.25000017    0.01690000
opls_145-33    C    0.19648996    0.89435013    0.76689996    -0.04180000
opls_700-34    C    0.15689003    0.96061996    0.74186002    0.04350000
opls_145-35    C    0.18226015    0.95939990    0.70241986    -0.13540000
opls_145-36    C    0.21956014    0.89219003    0.72648986    -0.26430000
opls_145-37    C    0.21259986    0.92527014    0.69449994    -0.05080000
opls_135-38    C    0.24456986    0.73218989    0.81972988    -0.42110000
opls_135-39    C    0.36498999    0.91188005    0.65449010    -0.42120000
opls_145-40    C    0.82157010    0.91606007    0.47524008    -0.13620000
opls_139-41    C    0.22867986    0.72867986    0.77132014    -0.10250000
opls_139-42    C    0.36445984    0.86445984    0.63554016    -0.10250000
opls_701-43    C    0.87499992    0.50000000    0.74999983    0.01690000
opls_145-44    C    0.23310004    0.69648996    0.60564987    -0.04180000
opls_700-45    C    0.25813998    0.65689003    0.53938004    0.04350000
opls_145-46    C    0.29758014    0.68226015    0.54060010    -0.13550000
opls_145-47    C    0.27351014    0.71956014    0.60780997    -0.26430000
opls_145-48    C    0.30550006    0.71259986    0.57472986    -0.05080000
opls_135-49    C    0.18027012    0.74456986    0.76781011    -0.42120000
opls_135-50    C    0.34550990    0.86498999    0.58811995    -0.42120000
opls_145-51    C    0.52475992    0.32157010    0.58393993    -0.13620000
opls_701-52    C    0.25000017    0.37499992    0.00000000    0.01690000
opls_145-53    C    0.73310004    0.80351004    0.39435013    -0.04180000
opls_700-54    C    0.75813998    0.84310997    0.46061996    0.04350000
opls_145-55    C    0.79758014    0.81773985    0.45939990    -0.13550000
opls_145-56    C    0.77351014    0.78043986    0.39219003    -0.26430000
opls_145-57    C    0.80550006    0.78740014    0.42527014    -0.05080000
opls_135-58    C    0.68027012    0.75543014    0.23218989    -0.42120000
opls_135-59    C    0.84550990    0.63501001    0.41188005    -0.42120000
opls_145-60    C    0.02475992    0.17842990    0.41606007    -0.13620000
opls_701-61    C    0.74999983    0.12500008    0.00000000    0.01690000
opls_145-62    C    0.26689996    0.30351004    0.10564987    -0.04180000
opls_700-63    C    0.24186002    0.34310997    0.03938004    0.04350000
opls_145-64    C    0.20241986    0.31773985    0.04060010    -0.13550000
opls_145-65    C    0.22648986    0.28043986    0.10780997    -0.26430000
opls_145-66    C    0.19449994    0.28740014    0.07472986    -0.05080000
opls_135-67    C    0.31972988    0.25543014    0.26781011    -0.42120000
opls_135-68    C    0.15449010    0.13501001    0.08811995    -0.42120000
opls_145-69    C    0.97524008    0.67842990    0.08393993    -0.13620000
opls_701-70    C    0.25000017    0.62500008    0.50000000    0.01690000
opls_145-71    C    0.76689996    0.19648996    0.89435013    -0.04180000
opls_700-72    C    0.74186002    0.15689003    0.96061996    0.04350000
opls_145-73    C    0.70241986    0.18226015    0.95939990    -0.13550000
opls_145-74    C    0.72648986    0.21956014    0.89219003    -0.26430000
opls_145-75    C    0.69449994    0.21259986    0.92527014    -0.05080000
opls_135-76    C    0.81972988    0.24456986    0.73218989    -0.42120000
opls_135-77    C    0.65449010    0.36498999    0.91188005    -0.42120000
opls_145-78    C    0.47524008    0.82157010    0.91606007    -0.13620000
opls_701-79    C    0.74999983    0.87499992    0.50000000    0.01690000
opls_145-80    C    0.10564987    0.26689996    0.30351004    -0.04180000
opls_700-81    C    0.03938004    0.24186002    0.34310997    0.04350000
opls_145-82    C    0.04060010    0.20241986    0.31773985    -0.13550000
opls_145-83    C    0.10780997    0.22648986    0.28043986    -0.26430000
opls_145-84    C    0.07472986    0.19449994    0.28740014    -0.05080000
opls_135-85    C    0.26781011    0.31972988    0.25543014    -0.42120000
opls_135-86    C    0.08811995    0.15449010    0.13501001    -0.42120000
opls_145-87    C    0.08393993    0.97524008    0.67842990    -0.13620000
opls_701-88    C    0.50000000    0.25000017    0.62500008    0.01690000
opls_145-89    C    0.89435013    0.76689996    0.19648996    -0.04180000
opls_700-90    C    0.96061996    0.74186002    0.15689003    0.04350000
opls_145-91    C    0.95939990    0.70241986    0.18226015    -0.13550000
opls_145-92    C    0.89219003    0.72648986    0.21956014    -0.26430000
opls_145-93    C    0.92527014    0.69449994    0.21259986    -0.05080000
opls_135-94    C    0.73218989    0.81972988    0.24456986    -0.42120000
opls_135-95    C    0.91188005    0.65449010    0.36498999    -0.42120000
opls_145-96    C    0.91606007    0.47524008    0.82157010    -0.13620000
opls_701-97    C    0.50000000    0.74999983    0.87499992    0.01690000
opls_145-98    C    0.60564987    0.23310004    0.69648996    -0.04180000
opls_700-99    C    0.53938004    0.25813998    0.65689003    0.04350000
opls_145-100    C    0.54060010    0.29758014    0.68226015    -0.13550000
opls_145-101    C    0.60780997    0.27351014    0.71956014    -0.26430000
opls_145-102    C    0.57472986    0.30550006    0.71259986    -0.05080000
opls_135-103    C    0.76781011    0.18027012    0.74456986    -0.42120000
opls_135-104    C    0.58811995    0.34550990    0.86498999    -0.42110000
opls_145-105    C    0.58393993    0.52475992    0.32157010    -0.13620000
opls_701-106    C    0.00000000    0.25000017    0.37499992    0.01690000
opls_145-107    C    0.39435013    0.73310004    0.80351004    -0.04180000
opls_700-108    C    0.46061996    0.75813998    0.84310997    0.04350000
opls_145-109    C    0.45939990    0.79758014    0.81773985    -0.13550000
opls_145-110    C    0.39219003    0.77351014    0.78043986    -0.26430000
opls_145-111    C    0.42527014    0.80550006    0.78740014    -0.05080000
opls_135-112    C    0.23218989    0.68027012    0.75543014    -0.42120000
opls_135-113    C    0.41188005    0.84550990    0.63501001    -0.42120000
opls_145-114    C    0.41606007    0.02475992    0.17842990    -0.13620000
opls_701-115    C    0.00000000    0.74999983    0.12500008    0.01690000
opls_145-116    C    0.85565004    0.94649013    0.48309987    -0.04180000
opls_700-117    C    0.78937987    0.90688986    0.50814015    0.04350000
opls_145-118    C    0.79059993    0.93225998    0.54757998    -0.13550000
opls_145-119    C    0.85781014    0.96955997    0.52350997    -0.26430000
opls_145-120    C    0.82473003    0.96260002    0.55549990    -0.05080000
opls_135-121    C    0.01780994    0.99457002    0.43026995    -0.42120000
opls_135-122    C    0.83812012    0.11499015    0.59551006    -0.42110000
opls_145-123    C    0.83394010    0.57156993    0.77476009    -0.13620000
opls_139-124    C    0.02131998    0.97868002    0.47868002    -0.10250000
opls_139-125    C    0.88553999    0.11446001    0.61446001    -0.10250000
opls_145-126    C    0.64434996    0.05350987    0.98309987    -0.04180000
opls_700-127    C    0.71062013    0.09311014    0.00814015    0.04350000
opls_145-128    C    0.70940007    0.06774002    0.04757998    -0.13550000
opls_145-129    C    0.64218986    0.03044003    0.02350997    -0.26430000
opls_145-130    C    0.67526997    0.03739998    0.05549990    -0.05080000
opls_135-131    C    0.48219006    0.00542998    0.93026995    -0.42120000
opls_135-132    C    0.66187988    0.88500985    0.09551006    -0.42120000
opls_145-133    C    0.66605990    0.42843007    0.27476009    -0.13620000
opls_139-134    C    0.47868002    0.02131998    0.97868002    -0.10250000
opls_139-135    C    0.61446001    0.88553999    0.11446001    -0.10250000
opls_145-136    C    0.35565004    0.55350987    0.51690013    -0.04180000
opls_700-137    C    0.28937987    0.59311014    0.49185985    0.04350000
opls_145-138    C    0.29059993    0.56774002    0.45242002    -0.13550000
opls_145-139    C    0.35781014    0.53044003    0.47649003    -0.26430000
opls_145-140    C    0.32473003    0.53739998    0.44450010    -0.05080000
opls_135-141    C    0.51780994    0.50542998    0.56973005    -0.42120000
opls_135-142    C    0.33812012    0.38500985    0.40448994    -0.42120000
opls_145-143    C    0.33394010    0.92843007    0.22523991    -0.13620000
opls_139-144    C    0.52131998    0.52131998    0.52131998    -0.10250000
opls_139-145    C    0.38553999    0.38553999    0.38553999    -0.10250000
opls_145-146    C    0.14434996    0.44649013    0.01690013    -0.04180000
opls_700-147    C    0.21062013    0.40688986    0.99185985    0.04350000
opls_145-148    C    0.20940007    0.43225998    0.95242002    -0.13550000
opls_145-149    C    0.14218986    0.46955997    0.97649003    -0.26430000
opls_145-150    C    0.17526997    0.46260002    0.94450010    -0.05080000
opls_135-151    C    0.98219006    0.49457002    0.06973005    -0.42110000
opls_135-152    C    0.16187988    0.61499015    0.90448994    -0.42120000
opls_145-153    C    0.16605990    0.07156993    0.72523991    -0.13620000
opls_139-154    C    0.97868002    0.47868002    0.02131998    -0.10250000
opls_139-155    C    0.11446001    0.61446001    0.88553999    -0.10250000
opls_145-156    C    0.94649013    0.48309987    0.85565004    -0.04180000
opls_700-157    C    0.90688986    0.50814015    0.78937987    0.04350000
opls_145-158    C    0.93225998    0.54757998    0.79059993    -0.13550000
opls_145-159    C    0.96955997    0.52350997    0.85781014    -0.26430000
opls_145-160    C    0.96260002    0.55549990    0.82473003    -0.05080000
opls_135-161    C    0.99457002    0.43026995    0.01780994    -0.42120000
opls_135-162    C    0.11499015    0.59551006    0.83812012    -0.42120000
opls_145-163    C    0.57156993    0.77476009    0.83394010    -0.13620000
opls_145-164    C    0.05350987    0.98309987    0.64434996    -0.04180000
opls_700-165    C    0.09311014    0.00814015    0.71062013    0.04350000
opls_145-166    C    0.06774002    0.04757998    0.70940007    -0.13550000
opls_145-167    C    0.03044003    0.02350997    0.64218986    -0.26430000
opls_145-168    C    0.03739998    0.05549990    0.67526997    -0.05080000
opls_135-169    C    0.00542998    0.93026995    0.48219006    -0.42120000
opls_135-170    C    0.88500985    0.09551006    0.66187988    -0.42120000
opls_145-171    C    0.42843007    0.27476009    0.66605990    -0.13620000
opls_145-172    C    0.55350987    0.51690013    0.35565004    -0.04180000
opls_700-173    C    0.59311014    0.49185985    0.28937987    0.04350000
opls_145-174    C    0.56774002    0.45242002    0.29059993    -0.13550000
opls_145-175    C    0.53044003    0.47649003    0.35781014    -0.26430000
opls_145-176    C    0.53739998    0.44450010    0.32473003    -0.05080000
opls_135-177    C    0.50542998    0.56973005    0.51780994    -0.42120000
opls_135-178    C    0.38500985    0.40448994    0.33812012    -0.42120000
opls_145-179    C    0.92843007    0.22523991    0.33394010    -0.13620000
opls_145-180    C    0.44649013    0.01690013    0.14434996    -0.04180000
opls_700-181    C    0.40688986    0.99185985    0.21062013    0.04350000
opls_145-182    C    0.43225998    0.95242002    0.20940007    -0.13550000
opls_145-183    C    0.46955997    0.97649003    0.14218986    -0.26430000
opls_145-184    C    0.46260002    0.94450010    0.17526997    -0.05080000
opls_135-185    C    0.49457002    0.06973005    0.98219006    -0.42120000
opls_135-186    C    0.61499015    0.90448994    0.16187988    -0.42120000
opls_145-187    C    0.07156993    0.72523991    0.16605990    -0.13620000
opls_145-188    C    0.51690013    0.35565004    0.55350987    -0.04180000
opls_700-189    C    0.49185985    0.28937987    0.59311014    0.04350000
opls_145-190    C    0.45242002    0.29059993    0.56774002    -0.13550000
opls_145-191    C    0.47649003    0.35781014    0.53044003    -0.26430000
opls_145-192    C    0.44450010    0.32473003    0.53739998    -0.05080000
opls_135-193    C    0.56973005    0.51780994    0.50542998    -0.42120000
opls_135-194    C    0.40448994    0.33812012    0.38500985    -0.42120000
opls_145-195    C    0.22523991    0.33394010    0.92843007    -0.13620000
opls_145-196    C    0.01690013    0.14434996    0.44649013    -0.04180000
opls_700-197    C    0.99185985    0.21062013    0.40688986    0.04350000
opls_145-198    C    0.95242002    0.20940007    0.43225998    -0.13550000
opls_145-199    C    0.97649003    0.14218986    0.46955997    -0.26420000
opls_145-200    C    0.94450010    0.17526997    0.46260002    -0.05080000
opls_135-201    C    0.06973005    0.98219006    0.49457002    -0.42120000
opls_135-202    C    0.90448994    0.16187988    0.61499015    -0.42120000
opls_145-203    C    0.72523991    0.16605990    0.07156993    -0.13620000
opls_145-204    C    0.48309987    0.85565004    0.94649013    -0.04180000
opls_700-205    C    0.50814015    0.78937987    0.90688986    0.04350000
opls_145-206    C    0.54757998    0.79059993    0.93225998    -0.13550000
opls_145-207    C    0.52350997    0.85781014    0.96955997    -0.26430000
opls_145-208    C    0.55549990    0.82473003    0.96260002    -0.05080000
opls_135-209    C    0.43026995    0.01780994    0.99457002    -0.42120000
opls_135-210    C    0.59551006    0.83812012    0.11499015    -0.42120000
opls_145-211    C    0.77476009    0.83394010    0.57156993    -0.13620000
opls_145-212    C    0.98309987    0.64434996    0.05350987    -0.04180000
opls_700-213    C    0.00814015    0.71062013    0.09311014    0.04350000
opls_145-214    C    0.04757998    0.70940007    0.06774002    -0.13550000
opls_145-215    C    0.02350997    0.64218986    0.03044003    -0.26420000
opls_145-216    C    0.05549990    0.67526997    0.03739998    -0.05080000
opls_135-217    C    0.93026995    0.48219006    0.00542998    -0.42120000
opls_135-218    C    0.09551006    0.66187988    0.88500985    -0.42120000
opls_145-219    C    0.27476009    0.66605990    0.42843007    -0.13620000
opls_145-220    C    0.30351004    0.89435013    0.23310004    -0.04180000
opls_700-221    C    0.34310997    0.96061996    0.25813998    0.04350000
opls_145-222    C    0.31773985    0.95939990    0.29758014    -0.13550000
opls_145-223    C    0.28043986    0.89219003    0.27351014    -0.26430000
opls_145-224    C    0.28740014    0.92527014    0.30550006    -0.05080000
opls_135-225    C    0.25543014    0.73218989    0.18027012    -0.42120000
opls_135-226    C    0.13501001    0.91188005    0.34550990    -0.42120000
opls_145-227    C    0.67842990    0.91606007    0.52475992    -0.13620000
opls_139-228    C    0.27132014    0.72867986    0.22867986    -0.10250000
opls_139-229    C    0.13554016    0.86445984    0.36445984    -0.10250000
opls_145-230    C    0.19648996    0.10564987    0.73310004    -0.04180000
opls_700-231    C    0.15689003    0.03938004    0.75813998    0.04350000
opls_145-232    C    0.18226015    0.04060010    0.79758014    -0.13550000
opls_145-233    C    0.21956014    0.10780997    0.77351014    -0.26430000
opls_145-234    C    0.21259986    0.07472986    0.80550006    -0.05080000
opls_135-235    C    0.24456986    0.26781011    0.68027012    -0.42120000
opls_135-236    C    0.36498999    0.08811995    0.84550990    -0.42120000
opls_145-237    C    0.82157010    0.08393993    0.02475992    -0.13610000
opls_139-238    C    0.22867986    0.27132014    0.72867986    -0.10250000
opls_139-239    C    0.36445984    0.13554016    0.86445984    -0.10250000
opls_145-240    C    0.69648996    0.39435013    0.26689996    -0.04180000
opls_700-241    C    0.65689003    0.46061996    0.24186002    0.04350000
opls_145-242    C    0.68226015    0.45939990    0.20241986    -0.13550000
opls_145-243    C    0.71956014    0.39219003    0.22648986    -0.26430000
opls_145-244    C    0.71259986    0.42527014    0.19449994    -0.05080000
opls_135-245    C    0.74456986    0.23218989    0.31972988    -0.42120000
opls_135-246    C    0.86498999    0.41188005    0.15449010    -0.42120000
opls_145-247    C    0.32157010    0.41606007    0.97524008    -0.13620000
opls_139-248    C    0.72867986    0.22867986    0.27132014    -0.10250000
opls_139-249    C    0.86445984    0.36445984    0.13554016    -0.10250000
opls_145-250    C    0.80351004    0.60564987    0.76689996    -0.04180000
opls_700-251    C    0.84310997    0.53938004    0.74186002    0.04350000
opls_145-252    C    0.81773985    0.54060010    0.70241986    -0.13550000
opls_145-253    C    0.78043986    0.60780997    0.72648986    -0.26430000
opls_145-254    C    0.78740014    0.57472986    0.69449994    -0.05080000
opls_135-255    C    0.75543014    0.76781011    0.81972988    -0.42120000
opls_135-256    C    0.63501001    0.58811995    0.65449010    -0.42120000
opls_145-257    C    0.17842990    0.58393993    0.47524008    -0.13620000
opls_139-258    C    0.77132014    0.77132014    0.77132014    -0.10250000
opls_139-259    C    0.63554016    0.63554016    0.63554016    -0.10250000
opls_145-260    C    0.76689996    0.80351004    0.60564987    -0.04180000
opls_700-261    C    0.74186002    0.84310997    0.53938004    0.04350000
opls_145-262    C    0.70241986    0.81773985    0.54060010    -0.13550000
opls_145-263    C    0.72648986    0.78043986    0.60780997    -0.26430000
opls_145-264    C    0.69449994    0.78740014    0.57472986    -0.05080000
opls_135-265    C    0.81972988    0.75543014    0.76781011    -0.42120000
opls_135-266    C    0.65449010    0.63501001    0.58811995    -0.42120000
opls_145-267    C    0.47524008    0.17842990    0.58393993    -0.13620000
opls_145-268    C    0.26689996    0.69648996    0.39435013    -0.04180000
opls_700-269    C    0.24186002    0.65689003    0.46061996    0.04350000
opls_145-270    C    0.20241986    0.68226015    0.45939990    -0.13550000
opls_145-271    C    0.22648986    0.71956014    0.39219003    -0.26430000
opls_145-272    C    0.19449994    0.71259986    0.42527014    -0.05080000
opls_135-273    C    0.31972988    0.74456986    0.23218989    -0.42120000
opls_135-274    C    0.15449010    0.86498999    0.41188005    -0.42120000
opls_145-275    C    0.97524008    0.32157010    0.41606007    -0.13620000
opls_145-276    C    0.73310004    0.19648996    0.10564987    -0.04180000
opls_700-277    C    0.75813998    0.15689003    0.03938004    0.04350000
opls_145-278    C    0.79758014    0.18226015    0.04060010    -0.13550000
opls_145-279    C    0.77351014    0.21956014    0.10780997    -0.26430000
opls_145-280    C    0.80550006    0.21259986    0.07472986    -0.05080000
opls_135-281    C    0.68027012    0.24456986    0.26781011    -0.42120000
opls_135-282    C    0.84550990    0.36498999    0.08811995    -0.42120000
opls_145-283    C    0.02475992    0.82157010    0.08393993    -0.13620000
opls_145-284    C    0.23310004    0.30351004    0.89435013    -0.04180000
opls_700-285    C    0.25813998    0.34310997    0.96061996    0.04350000
opls_145-286    C    0.29758014    0.31773985    0.95939990    -0.13550000
opls_145-287    C    0.27351014    0.28043986    0.89219003    -0.26430000
opls_145-288    C    0.30550006    0.28740014    0.92527014    -0.05080000
opls_135-289    C    0.18027012    0.25543014    0.73218989    -0.42120000
opls_135-290    C    0.34550990    0.13501001    0.91188005    -0.42120000
opls_145-291    C    0.52475992    0.67842990    0.91606007    -0.13620000
opls_145-292    C    0.89435013    0.23310004    0.30351004    -0.04180000
opls_700-293    C    0.96061996    0.25813998    0.34310997    0.04350000
opls_145-294    C    0.95939990    0.29758014    0.31773985    -0.13550000
opls_145-295    C    0.89219003    0.27351014    0.28043986    -0.26430000
opls_145-296    C    0.92527014    0.30550006    0.28740014    -0.05080000
opls_135-297    C    0.73218989    0.18027012    0.25543014    -0.42120000
opls_135-298    C    0.91188005    0.34550990    0.13501001    -0.42120000
opls_145-299    C    0.91606007    0.52475992    0.67842990    -0.13620000
opls_145-300    C    0.10564987    0.73310004    0.19648996    -0.04180000
opls_700-301    C    0.03938004    0.75813998    0.15689003    0.04350000
opls_145-302    C    0.04060010    0.79758014    0.18226015    -0.13550000
opls_145-303    C    0.10780997    0.77351014    0.21956014    -0.26430000
opls_145-304    C    0.07472986    0.80550006    0.21259986    -0.05080000
opls_135-305    C    0.26781011    0.68027012    0.24456986    -0.42120000
opls_135-306    C    0.08811995    0.84550990    0.36498999    -0.42120000
opls_145-307    C    0.08393993    0.02475992    0.82157010    -0.13620000
opls_145-308    C    0.39435013    0.26689996    0.69648996    -0.04180000
opls_700-309    C    0.46061996    0.24186002    0.65689003    0.04350000
opls_145-310    C    0.45939990    0.20241986    0.68226015    -0.13550000
opls_145-311    C    0.39219003    0.22648986    0.71956014    -0.26430000
opls_145-312    C    0.42527014    0.19449994    0.71259986    -0.05080000
opls_135-313    C    0.23218989    0.31972988    0.74456986    -0.42120000
opls_135-314    C    0.41188005    0.15449010    0.86498999    -0.42120000
opls_145-315    C    0.41606007    0.97524008    0.32157010    -0.13620000
opls_145-316    C    0.60564987    0.76689996    0.80351004    -0.04180000
opls_700-317    C    0.53938004    0.74186002    0.84310997    0.04350000
opls_145-318    C    0.54060010    0.70241986    0.81773985    -0.13550000
opls_145-319    C    0.60780997    0.72648986    0.78043986    -0.26430000
opls_145-320    C    0.57472986    0.69449994    0.78740014    -0.05080000
opls_135-321    C    0.76781011    0.81972988    0.75543014    -0.42120000
opls_135-322    C    0.58811995    0.65449010    0.63501001    -0.42120000
opls_145-323    C    0.58393993    0.47524008    0.17842990    -0.13620000
opls_145-324    C    0.64434996    0.94649013    0.51690013    -0.04180000
opls_700-325    C    0.71062013    0.90688986    0.49185985    0.04350000
opls_145-326    C    0.70940007    0.93225998    0.45242002    -0.13550000
opls_145-327    C    0.64218986    0.96955997    0.47649003    -0.26430000
opls_145-328    C    0.67526997    0.96260002    0.44450010    -0.05080000
opls_135-329    C    0.48219006    0.99457002    0.56973005    -0.42120000
opls_135-330    C    0.66187988    0.11499015    0.40448994    -0.42120000
opls_145-331    C    0.66605990    0.57156993    0.22523991    -0.13620000
opls_139-332    C    0.47868002    0.97868002    0.52131998    -0.10250000
opls_139-333    C    0.61446001    0.11446001    0.38553999    -0.10250000
opls_145-334    C    0.85565004    0.05350987    0.01690013    -0.04180000
opls_700-335    C    0.78937987    0.09311014    0.99185985    0.04350000
opls_145-336    C    0.79059993    0.06774002    0.95242002    -0.13550000
opls_145-337    C    0.85781014    0.03044003    0.97649003    -0.26430000
opls_145-338    C    0.82473003    0.03739998    0.94450010    -0.05080000
opls_135-339    C    0.01780994    0.00542998    0.06973005    -0.42120000
opls_135-340    C    0.83812012    0.88500985    0.90448994    -0.42120000
opls_145-341    C    0.83394010    0.42843007    0.72523991    -0.13620000
opls_139-342    C    0.02131998    0.02131998    0.02131998    -0.10250000
opls_139-343    C    0.88553999    0.88553999    0.88553999    -0.10240000
opls_145-344    C    0.14434996    0.55350987    0.48309987    -0.04180000
opls_700-345    C    0.21062013    0.59311014    0.50814015    0.04350000
opls_145-346    C    0.20940007    0.56774002    0.54757998    -0.13550000
opls_145-347    C    0.14218986    0.53044003    0.52350997    -0.26430000
opls_145-348    C    0.17526997    0.53739998    0.55549990    -0.05080000
opls_135-349    C    0.98219006    0.50542998    0.43026995    -0.42120000
opls_135-350    C    0.16187988    0.38500985    0.59551006    -0.42120000
opls_145-351    C    0.16605990    0.92843007    0.77476009    -0.13620000
opls_139-352    C    0.97868002    0.52131998    0.47868002    -0.10250000
opls_139-353    C    0.11446001    0.38553999    0.61446001    -0.10250000
opls_145-354    C    0.35565004    0.44649013    0.98309987    -0.04180000
opls_700-355    C    0.28937987    0.40688986    0.00814015    0.04350000
opls_145-356    C    0.29059993    0.43225998    0.04757998    -0.13550000
opls_145-357    C    0.35781014    0.46955997    0.02350997    -0.26430000
opls_145-358    C    0.32473003    0.46260002    0.05549990    -0.05080000
opls_135-359    C    0.51780994    0.49457002    0.93026995    -0.42120000
opls_135-360    C    0.33812012    0.61499015    0.09551006    -0.42120000
opls_145-361    C    0.33394010    0.07156993    0.27476009    -0.13620000
opls_139-362    C    0.52131998    0.47868002    0.97868002    -0.10250000
opls_139-363    C    0.38553999    0.61446001    0.11446001    -0.10250000
opls_145-364    C    0.55350987    0.48309987    0.14434996    -0.04180000
opls_700-365    C    0.59311014    0.50814015    0.21062013    0.04350000
opls_145-366    C    0.56774002    0.54757998    0.20940007    -0.13550000
opls_145-367    C    0.53044003    0.52350997    0.14218986    -0.26430000
opls_145-368    C    0.53739998    0.55549990    0.17526997    -0.05080000
opls_135-369    C    0.50542998    0.43026995    0.98219006    -0.42120000
opls_135-370    C    0.38500985    0.59551006    0.16187988    -0.42120000
opls_145-371    C    0.92843007    0.77476009    0.16605990    -0.13620000
opls_145-372    C    0.44649013    0.98309987    0.35565004    -0.04180000
opls_700-373    C    0.40688986    0.00814015    0.28937987    0.04350000
opls_145-374    C    0.43225998    0.04757998    0.29059993    -0.13550000
opls_145-375    C    0.46955997    0.02350997    0.35781014    -0.26430000
opls_145-376    C    0.46260002    0.05549990    0.32473003    -0.05080000
opls_135-377    C    0.49457002    0.93026995    0.51780994    -0.42120000
opls_135-378    C    0.61499015    0.09551006    0.33812012    -0.42120000
opls_145-379    C    0.07156993    0.27476009    0.33394010    -0.13620000
opls_145-380    C    0.94649013    0.51690013    0.64434996    -0.04180000
opls_700-381    C    0.90688986    0.49185985    0.71062013    0.04350000
opls_145-382    C    0.93225998    0.45242002    0.70940007    -0.13550000
opls_145-383    C    0.96955997    0.47649003    0.64218986    -0.26430000
opls_145-384    C    0.96260002    0.44450010    0.67526997    -0.05080000
opls_135-385    C    0.99457002    0.56973005    0.48219006    -0.42120000
opls_135-386    C    0.11499015    0.40448994    0.66187988    -0.42120000
opls_145-387    C    0.57156993    0.22523991    0.66605990    -0.13620000
opls_145-388    C    0.05350987    0.01690013    0.85565004    -0.04180000
opls_700-389    C    0.09311014    0.99185985    0.78937987    0.04350000
opls_145-390    C    0.06774002    0.95242002    0.79059993    -0.13550000
opls_145-391    C    0.03044003    0.97649003    0.85781014    -0.26430000
opls_145-392    C    0.03739998    0.94450010    0.82473003    -0.05080000
opls_135-393    C    0.00542998    0.06973005    0.01780994    -0.42120000
opls_135-394    C    0.88500985    0.90448994    0.83812012    -0.42120000
opls_145-395    C    0.42843007    0.72523991    0.83394010    -0.13620000
opls_145-396    C    0.98309987    0.35565004    0.44649013    -0.04180000
opls_700-397    C    0.00814015    0.28937987    0.40688986    0.04350000
opls_145-398    C    0.04757998    0.29059993    0.43225998    -0.13550000
opls_145-399    C    0.02350997    0.35781014    0.46955997    -0.26430000
opls_145-400    C    0.05549990    0.32473003    0.46260002    -0.05080000
opls_135-401    C    0.93026995    0.51780994    0.49457002    -0.42120000
opls_135-402    C    0.09551006    0.33812012    0.61499015    -0.42120000
opls_145-403    C    0.27476009    0.33394010    0.07156993    -0.13620000
opls_145-404    C    0.48309987    0.14434996    0.55350987    -0.04180000
opls_700-405    C    0.50814015    0.21062013    0.59311014    0.04350000
opls_145-406    C    0.54757998    0.20940007    0.56774002    -0.13550000
opls_145-407    C    0.52350997    0.14218986    0.53044003    -0.26430000
opls_145-408    C    0.55549990    0.17526997    0.53739998    -0.05080000
opls_135-409    C    0.43026995    0.98219006    0.50542998    -0.42120000
opls_135-410    C    0.59551006    0.16187988    0.38500985    -0.42120000
opls_145-411    C    0.77476009    0.16605990    0.92843007    -0.13620000
opls_145-412    C    0.01690013    0.85565004    0.05350987    -0.04180000
opls_700-413    C    0.99185985    0.78937987    0.09311014    0.04350000
opls_145-414    C    0.95242002    0.79059993    0.06774002    -0.13550000
opls_145-415    C    0.97649003    0.85781014    0.03044003    -0.26430000
opls_145-416    C    0.94450010    0.82473003    0.03739998    -0.05080000
opls_135-417    C    0.06973005    0.01780994    0.00542998    -0.42120000
opls_135-418    C    0.90448994    0.83812012    0.88500985    -0.42120000
opls_145-419    C    0.72523991    0.83394010    0.42843007    -0.13620000
opls_145-420    C    0.51690013    0.64434996    0.94649013    -0.04180000
opls_700-421    C    0.49185985    0.71062013    0.90688986    0.04350000
opls_145-422    C    0.45242002    0.70940007    0.93225998    -0.13550000
opls_145-423    C    0.47649003    0.64218986    0.96955997    -0.26430000
opls_145-424    C    0.44450010    0.67526997    0.96260002    -0.05080000
opls_135-425    C    0.56973005    0.48219006    0.99457002    -0.42120000
opls_135-426    C    0.40448994    0.66187988    0.11499015    -0.42120000
opls_145-427    C    0.22523991    0.66605990    0.57156993    -0.13620000
MOF2_B_2-428    B    0.75302989    0.64664990    0.28261989    0.70780000
MOF2_B_2-429    B    0.74697011    0.35335010    0.78261989    0.70770000
MOF2_B_2-430    B    0.24697011    0.14664990    0.21738011    0.70770000
MOF2_B_2-431    B    0.25302989    0.85335010    0.71738011    0.70770000
MOF2_B_2-432    B    0.28261989    0.75302989    0.64664990    0.70770000
MOF2_B_2-433    B    0.78261989    0.74697011    0.35335010    0.70770000
MOF2_B_2-434    B    0.21738011    0.24697011    0.14664990    0.70770000
MOF2_B_2-435    B    0.71738011    0.25302989    0.85335010    0.70770000
MOF2_B_2-436    B    0.14664990    0.21738011    0.24697011    0.70770000
MOF2_B_2-437    B    0.85335010    0.71738011    0.25302989    0.70770000
MOF2_B_2-438    B    0.64664990    0.28261989    0.75302989    0.70770000
MOF2_B_2-439    B    0.35335010    0.78261989    0.74697011    0.70770000
MOF2_B_2-440    B    0.89665007    0.00303005    0.53262005    0.70770000
MOF2_B_2-441    B    0.60334993    0.99696995    0.03262005    0.70770000
MOF2_B_2-442    B    0.39665007    0.49696995    0.46737995    0.70770000
MOF2_B_2-443    B    0.10334993    0.50303005    0.96737995    0.70770000
MOF2_B_2-444    B    0.00303005    0.53262005    0.89665007    0.70770000
MOF2_B_2-445    B    0.99696995    0.03262005    0.60334993    0.70770000
MOF2_B_2-446    B    0.49696995    0.46737995    0.39665007    0.70770000
MOF2_B_2-447    B    0.50303005    0.96737995    0.10334993    0.70770000
MOF2_B_2-448    B    0.46737995    0.39665007    0.49696995    0.70780000
MOF2_B_2-449    B    0.96737995    0.10334993    0.50303005    0.70770000
MOF2_B_2-450    B    0.53262005    0.89665007    0.00303005    0.70770000
MOF2_B_2-451    B    0.03262005    0.60334993    0.99696995    0.70770000
MOF2_B_2-452    B    0.24697011    0.85335010    0.28261989    0.70770000
MOF2_B_2-453    B    0.25302989    0.14664990    0.78261989    0.70770000
MOF2_B_2-454    B    0.75302989    0.35335010    0.21738011    0.70770000
MOF2_B_2-455    B    0.74697011    0.64664990    0.71738011    0.70770000
MOF2_B_2-456    B    0.71738011    0.74697011    0.64664990    0.70770000
MOF2_B_2-457    B    0.21738011    0.75302989    0.35335010    0.70770000
MOF2_B_2-458    B    0.78261989    0.25302989    0.14664990    0.70770000
MOF2_B_2-459    B    0.28261989    0.24697011    0.85335010    0.70770000
MOF2_B_2-460    B    0.85335010    0.28261989    0.24697011    0.70770000
MOF2_B_2-461    B    0.14664990    0.78261989    0.25302989    0.70770000
MOF2_B_2-462    B    0.35335010    0.21738011    0.75302989    0.70770000
MOF2_B_2-463    B    0.64664990    0.71738011    0.74697011    0.70770000
MOF2_B_2-464    B    0.60334993    0.00303005    0.46737995    0.70770000
MOF2_B_2-465    B    0.89665007    0.99696995    0.96737995    0.70770000
MOF2_B_2-466    B    0.10334993    0.49696995    0.53262005    0.70780000
MOF2_B_2-467    B    0.39665007    0.50303005    0.03262005    0.70770000
MOF2_B_2-468    B    0.49696995    0.53262005    0.10334993    0.70780000
MOF2_B_2-469    B    0.50303005    0.03262005    0.39665007    0.70770000
MOF2_B_2-470    B    0.00303005    0.46737995    0.60334993    0.70770000
MOF2_B_2-471    B    0.99696995    0.96737995    0.89665007    0.70770000
MOF2_B_2-472    B    0.03262005    0.39665007    0.50303005    0.70770000
MOF2_B_2-473    B    0.53262005    0.10334993    0.49696995    0.70770000
MOF2_B_2-474    B    0.96737995    0.89665007    0.99696995    0.70770000
MOF2_B_2-475    B    0.46737995    0.60334993    0.00303005    0.70770000
opls_180-476    O    0.76022999    0.67980010    0.24744013    -0.73060000
opls_180-477    O    0.77459002    0.64915014    0.32646993    -0.73070000
opls_180-478    O    0.73977001    0.32019990    0.74744013    -0.73070000
opls_180-479    O    0.72540998    0.35084986    0.82646993    -0.73070000
opls_180-480    O    0.23977001    0.17980010    0.25255987    -0.73070000
opls_180-481    O    0.22540998    0.14915014    0.17353007    -0.73070000
opls_180-482    O    0.26022999    0.82019990    0.75255987    -0.73070000
opls_180-483    O    0.27459002    0.85084986    0.67353007    -0.73070000
opls_180-484    O    0.24744013    0.76022999    0.67980010    -0.73070000
opls_180-485    O    0.32646993    0.77459002    0.64915014    -0.73070000
opls_180-486    O    0.74744013    0.73977001    0.32019990    -0.73070000
opls_180-487    O    0.82646993    0.72540998    0.35084986    -0.73070000
opls_180-488    O    0.25255987    0.23977001    0.17980010    -0.73060000
opls_180-489    O    0.17353007    0.22540998    0.14915014    -0.73070000
opls_180-490    O    0.75255987    0.26022999    0.82019990    -0.73070000
opls_180-491    O    0.67353007    0.27459002    0.85084986    -0.73070000
opls_180-492    O    0.17980010    0.25255987    0.23977001    -0.73060000
opls_180-493    O    0.14915014    0.17353007    0.22540998    -0.73070000
opls_180-494    O    0.82019990    0.75255987    0.26022999    -0.73070000
opls_180-495    O    0.85084986    0.67353007    0.27459002    -0.73070000
opls_180-496    O    0.67980010    0.24744013    0.76022999    -0.73070000
opls_180-497    O    0.64915014    0.32646993    0.77459002    -0.73050000
opls_180-498    O    0.32019990    0.74744013    0.73977001    -0.73060000
opls_180-499    O    0.35084986    0.82646993    0.72540998    -0.73070000
opls_180-500    O    0.92979993    0.01023016    0.49743997    -0.73070000
opls_180-501    O    0.89914998    0.02458985    0.57647010    -0.73070000
opls_180-502    O    0.57020007    0.98976984    0.99743997    -0.73070000
opls_180-503    O    0.60085002    0.97541015    0.07647010    -0.73070000
opls_180-504    O    0.42979993    0.48976984    0.50256003    -0.73070000
opls_180-505    O    0.39914998    0.47541015    0.42352990    -0.73060000
opls_180-506    O    0.07020007    0.51023016    0.00256003    -0.73070000
opls_180-507    O    0.10085002    0.52458985    0.92352990    -0.73060000
opls_180-508    O    0.01023016    0.49743997    0.92979993    -0.73070000
opls_180-509    O    0.02458985    0.57647010    0.89914998    -0.73070000
opls_180-510    O    0.98976984    0.99743997    0.57020007    -0.73070000
opls_180-511    O    0.97541015    0.07647010    0.60085002    -0.73070000
opls_180-512    O    0.48976984    0.50256003    0.42979993    -0.73070000
opls_180-513    O    0.47541015    0.42352990    0.39914998    -0.73070000
opls_180-514    O    0.51023016    0.00256003    0.07020007    -0.73070000
opls_180-515    O    0.52458985    0.92352990    0.10085002    -0.73070000
opls_180-516    O    0.50256003    0.42979993    0.48976984    -0.73070000
opls_180-517    O    0.42352990    0.39914998    0.47541015    -0.73070000
opls_180-518    O    0.00256003    0.07020007    0.51023016    -0.73070000
opls_180-519    O    0.92352990    0.10085002    0.52458985    -0.73070000
opls_180-520    O    0.49743997    0.92979993    0.01023016    -0.73070000
opls_180-521    O    0.57647010    0.89914998    0.02458985    -0.73070000
opls_180-522    O    0.99743997    0.57020007    0.98976984    -0.73070000
opls_180-523    O    0.07647010    0.60085002    0.97541015    -0.73070000
opls_180-524    O    0.23977001    0.82019990    0.24744013    -0.73070000
opls_180-525    O    0.22540998    0.85084986    0.32646993    -0.73070000
opls_180-526    O    0.26022999    0.17980010    0.74744013    -0.73070000
opls_180-527    O    0.27459002    0.14915014    0.82646993    -0.73070000
opls_180-528    O    0.76022999    0.32019990    0.25255987    -0.73070000
opls_180-529    O    0.77459002    0.35084986    0.17353007    -0.73070000
opls_180-530    O    0.73977001    0.67980010    0.75255987    -0.73060000
opls_180-531    O    0.72540998    0.64915014    0.67353007    -0.73070000
opls_180-532    O    0.75255987    0.73977001    0.67980010    -0.73070000
opls_180-533    O    0.67353007    0.72540998    0.64915014    -0.73060000
opls_180-534    O    0.25255987    0.76022999    0.32019990    -0.73070000
opls_180-535    O    0.17353007    0.77459002    0.35084986    -0.73070000
opls_180-536    O    0.74744013    0.26022999    0.17980010    -0.73070000
opls_180-537    O    0.82646993    0.27459002    0.14915014    -0.73070000
opls_180-538    O    0.24744013    0.23977001    0.82019990    -0.73070000
opls_180-539    O    0.32646993    0.22540998    0.85084986    -0.73070000
opls_180-540    O    0.82019990    0.24744013    0.23977001    -0.73060000
opls_180-541    O    0.85084986    0.32646993    0.22540998    -0.73060000
opls_180-542    O    0.17980010    0.74744013    0.26022999    -0.73070000
opls_180-543    O    0.14915014    0.82646993    0.27459002    -0.73070000
opls_180-544    O    0.32019990    0.25255987    0.76022999    -0.73070000
opls_180-545    O    0.35084986    0.17353007    0.77459002    -0.73070000
opls_180-546    O    0.67980010    0.75255987    0.73977001    -0.73070000
opls_180-547    O    0.64915014    0.67353007    0.72540998    -0.73070000
opls_180-548    O    0.57020007    0.01023016    0.50256003    -0.73070000
opls_180-549    O    0.60085002    0.02458985    0.42352990    -0.73050000
opls_180-550    O    0.92979993    0.98976984    0.00256003    -0.73060000
opls_180-551    O    0.89914998    0.97541015    0.92352990    -0.73070000
opls_180-552    O    0.07020007    0.48976984    0.49743997    -0.73070000
opls_180-553    O    0.10085002    0.47541015    0.57647010    -0.73070000
opls_180-554    O    0.42979993    0.51023016    0.99743997    -0.73070000
opls_180-555    O    0.39914998    0.52458985    0.07647010    -0.73070000
opls_180-556    O    0.48976984    0.49743997    0.07020007    -0.73070000
opls_180-557    O    0.47541015    0.57647010    0.10085002    -0.73070000
opls_180-558    O    0.51023016    0.99743997    0.42979993    -0.73070000
opls_180-559    O    0.52458985    0.07647010    0.39914998    -0.73070000
opls_180-560    O    0.01023016    0.50256003    0.57020007    -0.73070000
opls_180-561    O    0.02458985    0.42352990    0.60085002    -0.73070000
opls_180-562    O    0.98976984    0.00256003    0.92979993    -0.73060000
opls_180-563    O    0.97541015    0.92352990    0.89914998    -0.73070000
opls_180-564    O    0.99743997    0.42979993    0.51023016    -0.73070000
opls_180-565    O    0.07647010    0.39914998    0.52458985    -0.73070000
opls_180-566    O    0.49743997    0.07020007    0.48976984    -0.73060000
opls_180-567    O    0.57647010    0.10085002    0.47541015    -0.73070000
opls_180-568    O    0.00256003    0.92979993    0.98976984    -0.73050000
opls_180-569    O    0.92352990    0.89914998    0.97541015    -0.73070000
opls_180-570    O    0.50256003    0.57020007    0.01023016    -0.73070000
opls_180-571    O    0.42352990    0.60085002    0.02458985    -0.73070000
opls_140-572    H    0.72369997    0.78885006    0.15824993    0.16130000
opls_140-573    H    0.77961010    0.77905006    0.17716002    0.16130000
opls_140-574    H    0.74243002    0.73292997    0.16832995    0.16130000
opls_140-575    H    0.88612992    0.56612003    0.36631999    0.16130000
opls_140-576    H    0.83089011    0.57396986    0.34472000    0.16130000
opls_140-577    H    0.87847009    0.58793992    0.31113997    0.16130000
opls_146-578    H    0.67815985    0.51499015    0.32252010    0.11090000
opls_146-579    H    0.65052001    0.57021003    0.19289987    0.11600000
opls_146-580    H    0.73082003    0.57507997    0.33659015    0.10820000
opls_146-581    H    0.70230991    0.63014008    0.20732999    0.10910000
opls_140-582    H    0.77630003    0.21114994    0.65824993    0.16130000
opls_140-583    H    0.72038990    0.22094994    0.67716002    0.16130000
opls_140-584    H    0.75756998    0.26707003    0.66832995    0.16130000
opls_140-585    H    0.61387008    0.43387997    0.86631999    0.16130000
opls_140-586    H    0.66910989    0.42603014    0.84472000    0.16130000
opls_140-587    H    0.62152991    0.41206008    0.81113997    0.16130000
opls_146-588    H    0.82184015    0.48500985    0.82252010    0.11090000
opls_146-589    H    0.84947999    0.42978997    0.69289987    0.11600000
opls_146-590    H    0.76917997    0.42492003    0.83659015    0.10820000
opls_146-591    H    0.79769009    0.36985992    0.70732999    0.10910000
opls_140-592    H    0.27630003    0.28885006    0.34175007    0.16130000
opls_140-593    H    0.22038990    0.27905006    0.32283998    0.16130000
opls_140-594    H    0.25756998    0.23292997    0.33167005    0.16130000
opls_140-595    H    0.11387008    0.06612003    0.13368001    0.16130000
opls_140-596    H    0.16910989    0.07396986    0.15528000    0.16130000
opls_140-597    H    0.12152991    0.08793992    0.18886003    0.16130000
opls_146-598    H    0.32184015    0.01499015    0.17747990    0.11090000
opls_146-599    H    0.34947999    0.07021003    0.30710013    0.11600000
opls_146-600    H    0.26917997    0.07507997    0.16340985    0.10830000
opls_146-601    H    0.29769009    0.13014008    0.29267001    0.10910000
opls_140-602    H    0.22369997    0.71114994    0.84175007    0.16130000
opls_140-603    H    0.27961010    0.72094994    0.82283998    0.16130000
opls_140-604    H    0.24243002    0.76707003    0.83167005    0.16130000
opls_140-605    H    0.38612992    0.93387997    0.63368001    0.16130000
opls_140-606    H    0.33089011    0.92603014    0.65528000    0.16130000
opls_140-607    H    0.37847009    0.91206008    0.68886003    0.16130000
opls_146-608    H    0.17815985    0.98500985    0.67747990    0.11090000
opls_146-609    H    0.15052001    0.92978997    0.80710013    0.11600000
opls_146-610    H    0.23082003    0.92492003    0.66340985    0.10820000
opls_146-611    H    0.20230991    0.86985992    0.79267001    0.10910000
opls_140-612    H    0.15824993    0.72369997    0.78885006    0.16140000
opls_140-613    H    0.17716002    0.77961010    0.77905006    0.16130000
opls_140-614    H    0.16832995    0.74243002    0.73292997    0.16130000
opls_140-615    H    0.36631999    0.88612992    0.56612003    0.16130000
opls_140-616    H    0.34472000    0.83089011    0.57396986    0.16130000
opls_140-617    H    0.31113997    0.87847009    0.58793992    0.16130000
opls_146-618    H    0.32252010    0.67815985    0.51499015    0.11090000
opls_146-619    H    0.19289987    0.65052001    0.57021003    0.11600000
opls_146-620    H    0.33659015    0.73082003    0.57507997    0.10820000
opls_146-621    H    0.20732999    0.70230991    0.63014008    0.10910000
opls_140-622    H    0.65824993    0.77630003    0.21114994    0.16130000
opls_140-623    H    0.67716002    0.72038990    0.22094994    0.16130000
opls_140-624    H    0.66832995    0.75756998    0.26707003    0.16130000
opls_140-625    H    0.86631999    0.61387008    0.43387997    0.16130000
opls_140-626    H    0.84472000    0.66910989    0.42603014    0.16130000
opls_140-627    H    0.81113997    0.62152991    0.41206008    0.16130000
opls_146-628    H    0.82252010    0.82184015    0.48500985    0.11090000
opls_146-629    H    0.69289987    0.84947999    0.42978997    0.11600000
opls_146-630    H    0.83659015    0.76917997    0.42492003    0.10820000
opls_146-631    H    0.70732999    0.79769009    0.36985992    0.10910000
opls_140-632    H    0.34175007    0.27630003    0.28885006    0.16130000
opls_140-633    H    0.32283998    0.22038990    0.27905006    0.16130000
opls_140-634    H    0.33167005    0.25756998    0.23292997    0.16130000
opls_140-635    H    0.13368001    0.11387008    0.06612003    0.16130000
opls_140-636    H    0.15528000    0.16910989    0.07396986    0.16130000
opls_140-637    H    0.18886003    0.12152991    0.08793992    0.16130000
opls_146-638    H    0.17747990    0.32184015    0.01499015    0.11090000
opls_146-639    H    0.30710013    0.34947999    0.07021003    0.11600000
opls_146-640    H    0.16340985    0.26917997    0.07507997    0.10820000
opls_146-641    H    0.29267001    0.29769009    0.13014008    0.10910000
opls_140-642    H    0.84175007    0.22369997    0.71114994    0.16130000
opls_140-643    H    0.82283998    0.27961010    0.72094994    0.16130000
opls_140-644    H    0.83167005    0.24243002    0.76707003    0.16130000
opls_140-645    H    0.63368001    0.38612992    0.93387997    0.16130000
opls_140-646    H    0.65528000    0.33089011    0.92603014    0.16130000
opls_140-647    H    0.68886003    0.37847009    0.91206008    0.16130000
opls_146-648    H    0.67747990    0.17815985    0.98500985    0.11090000
opls_146-649    H    0.80710013    0.15052001    0.92978997    0.11600000
opls_146-650    H    0.66340985    0.23082003    0.92492003    0.10820000
opls_146-651    H    0.79267001    0.20230991    0.86985992    0.10910000
opls_140-652    H    0.28885006    0.34175007    0.27630003    0.16130000
opls_140-653    H    0.27905006    0.32283998    0.22038990    0.16130000
opls_140-654    H    0.23292997    0.33167005    0.25756998    0.16140000
opls_140-655    H    0.06612003    0.13368001    0.11387008    0.16130000
opls_140-656    H    0.07396986    0.15528000    0.16910989    0.16130000
opls_140-657    H    0.08793992    0.18886003    0.12152991    0.16130000
opls_146-658    H    0.01499015    0.17747990    0.32184015    0.11090000
opls_146-659    H    0.07021003    0.30710013    0.34947999    0.11600000
opls_146-660    H    0.07507997    0.16340985    0.26917997    0.10820000
opls_146-661    H    0.13014008    0.29267001    0.29769009    0.10910000
opls_140-662    H    0.71114994    0.84175007    0.22369997    0.16130000
opls_140-663    H    0.72094994    0.82283998    0.27961010    0.16140000
opls_140-664    H    0.76707003    0.83167005    0.24243002    0.16130000
opls_140-665    H    0.93387997    0.63368001    0.38612992    0.16130000
opls_140-666    H    0.92603014    0.65528000    0.33089011    0.16130000
opls_140-667    H    0.91206008    0.68886003    0.37847009    0.16130000
opls_146-668    H    0.98500985    0.67747990    0.17815985    0.11090000
opls_146-669    H    0.92978997    0.80710013    0.15052001    0.11600000
opls_146-670    H    0.92492003    0.66340985    0.23082003    0.10820000
opls_146-671    H    0.86985992    0.79267001    0.20230991    0.10910000
opls_140-672    H    0.78885006    0.15824993    0.72369997    0.16130000
opls_140-673    H    0.77905006    0.17716002    0.77961010    0.16130000
opls_140-674    H    0.73292997    0.16832995    0.74243002    0.16130000
opls_140-675    H    0.56612003    0.36631999    0.88612992    0.16130000
opls_140-676    H    0.57396986    0.34472000    0.83089011    0.16130000
opls_140-677    H    0.58793992    0.31113997    0.87847009    0.16130000
opls_146-678    H    0.51499015    0.32252010    0.67815985    0.11090000
opls_146-679    H    0.57021003    0.19289987    0.65052001    0.11600000
opls_146-680    H    0.57507997    0.33659015    0.73082003    0.10820000
opls_146-681    H    0.63014008    0.20732999    0.70230991    0.10910000
opls_140-682    H    0.21114994    0.65824993    0.77630003    0.16130000
opls_140-683    H    0.22094994    0.67716002    0.72038990    0.16130000
opls_140-684    H    0.26707003    0.66832995    0.75756998    0.16130000
opls_140-685    H    0.43387997    0.86631999    0.61387008    0.16140000
opls_140-686    H    0.42603014    0.84472000    0.66910989    0.16130000
opls_140-687    H    0.41206008    0.81113997    0.62152991    0.16130000
opls_146-688    H    0.48500985    0.82252010    0.82184015    0.11090000
opls_146-689    H    0.42978997    0.69289987    0.84947999    0.11600000
opls_146-690    H    0.42492003    0.83659015    0.76917997    0.10820000
opls_146-691    H    0.36985992    0.70732999    0.79769009    0.10910000
opls_140-692    H    0.03884990    0.97370014    0.40825010    0.16130000
opls_140-693    H    0.02904990    0.02960993    0.42715985    0.16130000
opls_140-694    H    0.98293013    0.99242985    0.41833012    0.16130000
opls_140-695    H    0.81611986    0.13613009    0.61632016    0.16130000
opls_140-696    H    0.82397003    0.08088995    0.59472016    0.16130000
opls_140-697    H    0.83794008    0.12846993    0.56114014    0.16130000
opls_146-698    H    0.76498999    0.92816001    0.57251994    0.11090000
opls_146-699    H    0.82020986    0.90051985    0.44290004    0.11600000
opls_146-700    H    0.82508014    0.98081986    0.58658998    0.10820000
opls_146-701    H    0.88013991    0.95231007    0.45733015    0.10910000
opls_140-702    H    0.46115010    0.02629986    0.90825010    0.16130000
opls_140-703    H    0.47095010    0.97039007    0.92715985    0.16130000
opls_140-704    H    0.51706987    0.00757015    0.91833012    0.16130000
opls_140-705    H    0.68388014    0.86386991    0.11632016    0.16130000
opls_140-706    H    0.67602997    0.91911005    0.09472016    0.16130000
opls_140-707    H    0.66205992    0.87153007    0.06114014    0.16130000
opls_146-708    H    0.73501001    0.07183999    0.07251994    0.11090000
opls_146-709    H    0.67979014    0.09948015    0.94290004    0.11600000
opls_146-710    H    0.67491986    0.01918014    0.08658998    0.10820000
opls_146-711    H    0.61986009    0.04768993    0.95733015    0.10910000
opls_140-712    H    0.53884990    0.52629986    0.59174990    0.16130000
opls_140-713    H    0.52904990    0.47039007    0.57284015    0.16130000
opls_140-714    H    0.48293013    0.50757015    0.58166988    0.16130000
opls_140-715    H    0.31611986    0.36386991    0.38367984    0.16130000
opls_140-716    H    0.32397003    0.41911005    0.40527984    0.16130000
opls_140-717    H    0.33794008    0.37153007    0.43885986    0.16140000
opls_146-718    H    0.26498999    0.57183999    0.42748006    0.11090000
opls_146-719    H    0.32020986    0.59948015    0.55709996    0.11600000
opls_146-720    H    0.32508014    0.51918014    0.41341002    0.10820000
opls_146-721    H    0.38013991    0.54768993    0.54266985    0.10910000
opls_140-722    H    0.96115010    0.47370014    0.09174990    0.16130000
opls_140-723    H    0.97095010    0.52960993    0.07284015    0.16130000
opls_140-724    H    0.01706987    0.49242985    0.08166988    0.16130000
opls_140-725    H    0.18388014    0.63613009    0.88367984    0.16130000
opls_140-726    H    0.17602997    0.58088995    0.90527984    0.16130000
opls_140-727    H    0.16205992    0.62846993    0.93885986    0.16130000
opls_146-728    H    0.23501001    0.42816001    0.92748006    0.11090000
opls_146-729    H    0.17979014    0.40051985    0.05709996    0.11600000
opls_146-730    H    0.17491986    0.48081986    0.91341002    0.10820000
opls_146-731    H    0.11986009    0.45231007    0.04266985    0.10910000
opls_140-732    H    0.97370014    0.40825010    0.03884990    0.16130000
opls_140-733    H    0.02960993    0.42715985    0.02904990    0.16130000
opls_140-734    H    0.99242985    0.41833012    0.98293013    0.16130000
opls_140-735    H    0.13613009    0.61632016    0.81611986    0.16130000
opls_140-736    H    0.08088995    0.59472016    0.82397003    0.16130000
opls_140-737    H    0.12846993    0.56114014    0.83794008    0.16130000
opls_146-738    H    0.92816001    0.57251994    0.76498999    0.11090000
opls_146-739    H    0.90051985    0.44290004    0.82020986    0.11600000
opls_146-740    H    0.98081986    0.58658998    0.82508014    0.10820000
opls_146-741    H    0.95231007    0.45733015    0.88013991    0.10910000
opls_140-742    H    0.02629986    0.90825010    0.46115010    0.16130000
opls_140-743    H    0.97039007    0.92715985    0.47095010    0.16130000
opls_140-744    H    0.00757015    0.91833012    0.51706987    0.16130000
opls_140-745    H    0.86386991    0.11632016    0.68388014    0.16130000
opls_140-746    H    0.91911005    0.09472016    0.67602997    0.16130000
opls_140-747    H    0.87153007    0.06114014    0.66205992    0.16130000
opls_146-748    H    0.07183999    0.07251994    0.73501001    0.11090000
opls_146-749    H    0.09948015    0.94290004    0.67979014    0.11600000
opls_146-750    H    0.01918014    0.08658998    0.67491986    0.10820000
opls_146-751    H    0.04768993    0.95733015    0.61986009    0.10910000
opls_140-752    H    0.52629986    0.59174990    0.53884990    0.16130000
opls_140-753    H    0.47039007    0.57284015    0.52904990    0.16140000
opls_140-754    H    0.50757015    0.58166988    0.48293013    0.16130000
opls_140-755    H    0.36386991    0.38367984    0.31611986    0.16130000
opls_140-756    H    0.41911005    0.40527984    0.32397003    0.16130000
opls_140-757    H    0.37153007    0.43885986    0.33794008    0.16130000
opls_146-758    H    0.57183999    0.42748006    0.26498999    0.11090000
opls_146-759    H    0.59948015    0.55709996    0.32020986    0.11600000
opls_146-760    H    0.51918014    0.41341002    0.32508014    0.10820000
opls_146-761    H    0.54768993    0.54266985    0.38013991    0.10910000
opls_140-762    H    0.47370014    0.09174990    0.96115010    0.16130000
opls_140-763    H    0.52960993    0.07284015    0.97095010    0.16130000
opls_140-764    H    0.49242985    0.08166988    0.01706987    0.16130000
opls_140-765    H    0.63613009    0.88367984    0.18388014    0.16130000
opls_140-766    H    0.58088995    0.90527984    0.17602997    0.16130000
opls_140-767    H    0.62846993    0.93885986    0.16205992    0.16130000
opls_146-768    H    0.42816001    0.92748006    0.23501001    0.11090000
opls_146-769    H    0.40051985    0.05709996    0.17979014    0.11600000
opls_146-770    H    0.48081986    0.91341002    0.17491986    0.10820000
opls_146-771    H    0.45231007    0.04266985    0.11986009    0.10910000
opls_140-772    H    0.59174990    0.53884990    0.52629986    0.16130000
opls_140-773    H    0.57284015    0.52904990    0.47039007    0.16130000
opls_140-774    H    0.58166988    0.48293013    0.50757015    0.16130000
opls_140-775    H    0.38367984    0.31611986    0.36386991    0.16130000
opls_140-776    H    0.40527984    0.32397003    0.41911005    0.16130000
opls_140-777    H    0.43885986    0.33794008    0.37153007    0.16130000
opls_146-778    H    0.42748006    0.26498999    0.57183999    0.11090000
opls_146-779    H    0.55709996    0.32020986    0.59948015    0.11600000
opls_146-780    H    0.41341002    0.32508014    0.51918014    0.10820000
opls_146-781    H    0.54266985    0.38013991    0.54768993    0.10910000
opls_140-782    H    0.09174990    0.96115010    0.47370014    0.16130000
opls_140-783    H    0.07284015    0.97095010    0.52960993    0.16130000
opls_140-784    H    0.08166988    0.01706987    0.49242985    0.16130000
opls_140-785    H    0.88367984    0.18388014    0.63613009    0.16130000
opls_140-786    H    0.90527984    0.17602997    0.58088995    0.16130000
opls_140-787    H    0.93885986    0.16205992    0.62846993    0.16130000
opls_146-788    H    0.92748006    0.23501001    0.42816001    0.11090000
opls_146-789    H    0.05709996    0.17979014    0.40051985    0.11600000
opls_146-790    H    0.91341002    0.17491986    0.48081986    0.10820000
opls_146-791    H    0.04266985    0.11986009    0.45231007    0.10910000
opls_140-792    H    0.40825010    0.03884990    0.97370014    0.16130000
opls_140-793    H    0.42715985    0.02904990    0.02960993    0.16130000
opls_140-794    H    0.41833012    0.98293013    0.99242985    0.16130000
opls_140-795    H    0.61632016    0.81611986    0.13613009    0.16130000
opls_140-796    H    0.59472016    0.82397003    0.08088995    0.16130000
opls_140-797    H    0.56114014    0.83794008    0.12846993    0.16130000
opls_146-798    H    0.57251994    0.76498999    0.92816001    0.11090000
opls_146-799    H    0.44290004    0.82020986    0.90051985    0.11600000
opls_146-800    H    0.58658998    0.82508014    0.98081986    0.10820000
opls_146-801    H    0.45733015    0.88013991    0.95231007    0.10910000
opls_140-802    H    0.90825010    0.46115010    0.02629986    0.16130000
opls_140-803    H    0.92715985    0.47095010    0.97039007    0.16130000
opls_140-804    H    0.91833012    0.51706987    0.00757015    0.16130000
opls_140-805    H    0.11632016    0.68388014    0.86386991    0.16130000
opls_140-806    H    0.09472016    0.67602997    0.91911005    0.16130000
opls_140-807    H    0.06114014    0.66205992    0.87153007    0.16130000
opls_146-808    H    0.07251994    0.73501001    0.07183999    0.11090000
opls_146-809    H    0.94290004    0.67979014    0.09948015    0.11600000
opls_146-810    H    0.08658998    0.67491986    0.01918014    0.10820000
opls_146-811    H    0.95733015    0.61986009    0.04768993    0.10910000
opls_140-812    H    0.27630003    0.71114994    0.15824993    0.16130000
opls_140-813    H    0.22038990    0.72094994    0.17716002    0.16130000
opls_140-814    H    0.25756998    0.76707003    0.16832995    0.16130000
opls_140-815    H    0.11387008    0.93387997    0.36631999    0.16130000
opls_140-816    H    0.16910989    0.92603014    0.34472000    0.16130000
opls_140-817    H    0.12152991    0.91206008    0.31113997    0.16130000
opls_146-818    H    0.32184015    0.98500985    0.32252010    0.11090000
opls_146-819    H    0.34947999    0.92978997    0.19289987    0.11600000
opls_146-820    H    0.26917997    0.92492003    0.33659015    0.10820000
opls_146-821    H    0.29769009    0.86985992    0.20732999    0.10910000
opls_140-822    H    0.22369997    0.28885006    0.65824993    0.16130000
opls_140-823    H    0.27961010    0.27905006    0.67716002    0.16130000
opls_140-824    H    0.24243002    0.23292997    0.66832995    0.16130000
opls_140-825    H    0.38612992    0.06612003    0.86631999    0.16130000
opls_140-826    H    0.33089011    0.07396986    0.84472000    0.16130000
opls_140-827    H    0.37847009    0.08793992    0.81113997    0.16130000
opls_146-828    H    0.17815985    0.01499015    0.82252010    0.11090000
opls_146-829    H    0.15052001    0.07021003    0.69289987    0.11600000
opls_146-830    H    0.23082003    0.07507997    0.83659015    0.10820000
opls_146-831    H    0.20230991    0.13014008    0.70732999    0.10910000
opls_140-832    H    0.72369997    0.21114994    0.34175007    0.16130000
opls_140-833    H    0.77961010    0.22094994    0.32283998    0.16130000
opls_140-834    H    0.74243002    0.26707003    0.33167005    0.16130000
opls_140-835    H    0.88612992    0.43387997    0.13368001    0.16130000
opls_140-836    H    0.83089011    0.42603014    0.15528000    0.16130000
opls_140-837    H    0.87847009    0.41206008    0.18886003    0.16130000
opls_146-838    H    0.67815985    0.48500985    0.17747990    0.11090000
opls_146-839    H    0.65052001    0.42978997    0.30710013    0.11600000
opls_146-840    H    0.73082003    0.42492003    0.16340985    0.10820000
opls_146-841    H    0.70230991    0.36985992    0.29267001    0.10910000
opls_140-842    H    0.77630003    0.78885006    0.84175007    0.16130000
opls_140-843    H    0.72038990    0.77905006    0.82283998    0.16130000
opls_140-844    H    0.75756998    0.73292997    0.83167005    0.16130000
opls_140-845    H    0.61387008    0.56612003    0.63368001    0.16130000
opls_140-846    H    0.66910989    0.57396986    0.65528000    0.16130000
opls_140-847    H    0.62152991    0.58793992    0.68886003    0.16130000
opls_146-848    H    0.82184015    0.51499015    0.67747990    0.11090000
opls_146-849    H    0.84947999    0.57021003    0.80710013    0.11600000
opls_146-850    H    0.76917997    0.57507997    0.66340985    0.10820000
opls_146-851    H    0.79769009    0.63014008    0.79267001    0.10910000
opls_140-852    H    0.84175007    0.77630003    0.78885006    0.16130000
opls_140-853    H    0.82283998    0.72038990    0.77905006    0.16130000
opls_140-854    H    0.83167005    0.75756998    0.73292997    0.16130000
opls_140-855    H    0.63368001    0.61387008    0.56612003    0.16130000
opls_140-856    H    0.65528000    0.66910989    0.57396986    0.16130000
opls_140-857    H    0.68886003    0.62152991    0.58793992    0.16130000
opls_146-858    H    0.67747990    0.82184015    0.51499015    0.11090000
opls_146-859    H    0.80710013    0.84947999    0.57021003    0.11600000
opls_146-860    H    0.66340985    0.76917997    0.57507997    0.10820000
opls_146-861    H    0.79267001    0.79769009    0.63014008    0.10910000
opls_140-862    H    0.34175007    0.72369997    0.21114994    0.16130000
opls_140-863    H    0.32283998    0.77961010    0.22094994    0.16130000
opls_140-864    H    0.33167005    0.74243002    0.26707003    0.16130000
opls_140-865    H    0.13368001    0.88612992    0.43387997    0.16130000
opls_140-866    H    0.15528000    0.83089011    0.42603014    0.16130000
opls_140-867    H    0.18886003    0.87847009    0.41206008    0.16130000
opls_146-868    H    0.17747990    0.67815985    0.48500985    0.11090000
opls_146-869    H    0.30710013    0.65052001    0.42978997    0.11600000
opls_146-870    H    0.16340985    0.73082003    0.42492003    0.10820000
opls_146-871    H    0.29267001    0.70230991    0.36985992    0.10910000
opls_140-872    H    0.65824993    0.22369997    0.28885006    0.16130000
opls_140-873    H    0.67716002    0.27961010    0.27905006    0.16130000
opls_140-874    H    0.66832995    0.24243002    0.23292997    0.16140000
opls_140-875    H    0.86631999    0.38612992    0.06612003    0.16130000
opls_140-876    H    0.84472000    0.33089011    0.07396986    0.16130000
opls_140-877    H    0.81113997    0.37847009    0.08793992    0.16130000
opls_146-878    H    0.82252010    0.17815985    0.01499015    0.11090000
opls_146-879    H    0.69289987    0.15052001    0.07021003    0.11600000
opls_146-880    H    0.83659015    0.23082003    0.07507997    0.10820000
opls_146-881    H    0.70732999    0.20230991    0.13014008    0.10910000
opls_140-882    H    0.15824993    0.27630003    0.71114994    0.16140000
opls_140-883    H    0.17716002    0.22038990    0.72094994    0.16130000
opls_140-884    H    0.16832995    0.25756998    0.76707003    0.16130000
opls_140-885    H    0.36631999    0.11387008    0.93387997    0.16130000
opls_140-886    H    0.34472000    0.16910989    0.92603014    0.16140000
opls_140-887    H    0.31113997    0.12152991    0.91206008    0.16130000
opls_146-888    H    0.32252010    0.32184015    0.98500985    0.11090000
opls_146-889    H    0.19289987    0.34947999    0.92978997    0.11600000
opls_146-890    H    0.33659015    0.26917997    0.92492003    0.10820000
opls_146-891    H    0.20732999    0.29769009    0.86985992    0.10910000
opls_140-892    H    0.71114994    0.15824993    0.27630003    0.16130000
opls_140-893    H    0.72094994    0.17716002    0.22038990    0.16130000
opls_140-894    H    0.76707003    0.16832995    0.25756998    0.16130000
opls_140-895    H    0.93387997    0.36631999    0.11387008    0.16130000
opls_140-896    H    0.92603014    0.34472000    0.16910989    0.16130000
opls_140-897    H    0.91206008    0.31113997    0.12152991    0.16130000
opls_146-898    H    0.98500985    0.32252010    0.32184015    0.11090000
opls_146-899    H    0.92978997    0.19289987    0.34947999    0.11600000
opls_146-900    H    0.92492003    0.33659015    0.26917997    0.10820000
opls_146-901    H    0.86985992    0.20732999    0.29769009    0.10910000
opls_140-902    H    0.28885006    0.65824993    0.22369997    0.16130000
opls_140-903    H    0.27905006    0.67716002    0.27961010    0.16130000
opls_140-904    H    0.23292997    0.66832995    0.24243002    0.16130000
opls_140-905    H    0.06612003    0.86631999    0.38612992    0.16130000
opls_140-906    H    0.07396986    0.84472000    0.33089011    0.16130000
opls_140-907    H    0.08793992    0.81113997    0.37847009    0.16130000
opls_146-908    H    0.01499015    0.82252010    0.17815985    0.11090000
opls_146-909    H    0.07021003    0.69289987    0.15052001    0.11610000
opls_146-910    H    0.07507997    0.83659015    0.23082003    0.10820000
opls_146-911    H    0.13014008    0.70732999    0.20230991    0.10910000
opls_140-912    H    0.21114994    0.34175007    0.72369997    0.16130000
opls_140-913    H    0.22094994    0.32283998    0.77961010    0.16130000
opls_140-914    H    0.26707003    0.33167005    0.74243002    0.16130000
opls_140-915    H    0.43387997    0.13368001    0.88612992    0.16130000
opls_140-916    H    0.42603014    0.15528000    0.83089011    0.16130000
opls_140-917    H    0.41206008    0.18886003    0.87847009    0.16130000
opls_146-918    H    0.48500985    0.17747990    0.67815985    0.11090000
opls_146-919    H    0.42978997    0.30710013    0.65052001    0.11600000
opls_146-920    H    0.42492003    0.16340985    0.73082003    0.10820000
opls_146-921    H    0.36985992    0.29267001    0.70230991    0.10910000
opls_140-922    H    0.78885006    0.84175007    0.77630003    0.16130000
opls_140-923    H    0.77905006    0.82283998    0.72038990    0.16130000
opls_140-924    H    0.73292997    0.83167005    0.75756998    0.16130000
opls_140-925    H    0.56612003    0.63368001    0.61387008    0.16140000
opls_140-926    H    0.57396986    0.65528000    0.66910989    0.16130000
opls_140-927    H    0.58793992    0.68886003    0.62152991    0.16130000
opls_146-928    H    0.51499015    0.67747990    0.82184015    0.11090000
opls_146-929    H    0.57021003    0.80710013    0.84947999    0.11600000
opls_146-930    H    0.57507997    0.66340985    0.76917997    0.10820000
opls_146-931    H    0.63014008    0.79267001    0.79769009    0.10910000
opls_140-932    H    0.46115010    0.97370014    0.59174990    0.16130000
opls_140-933    H    0.47095010    0.02960993    0.57284015    0.16130000
opls_140-934    H    0.51706987    0.99242985    0.58166988    0.16130000
opls_140-935    H    0.68388014    0.13613009    0.38367984    0.16130000
opls_140-936    H    0.67602997    0.08088995    0.40527984    0.16130000
opls_140-937    H    0.66205992    0.12846993    0.43885986    0.16130000
opls_146-938    H    0.73501001    0.92816001    0.42748006    0.11090000
opls_146-939    H    0.67979014    0.90051985    0.55709996    0.11600000
opls_146-940    H    0.67491986    0.98081986    0.41341002    0.10820000
opls_146-941    H    0.61986009    0.95231007    0.54266985    0.10910000
opls_140-942    H    0.03884990    0.02629986    0.09174990    0.16130000
opls_140-943    H    0.02904990    0.97039007    0.07284015    0.16130000
opls_140-944    H    0.98293013    0.00757015    0.08166988    0.16130000
opls_140-945    H    0.81611986    0.86386991    0.88367984    0.16130000
opls_140-946    H    0.82397003    0.91911005    0.90527984    0.16130000
opls_140-947    H    0.83794008    0.87153007    0.93885986    0.16130000
opls_146-948    H    0.76498999    0.07183999    0.92748006    0.11090000
opls_146-949    H    0.82020986    0.09948015    0.05709996    0.11600000
opls_146-950    H    0.82508014    0.01918014    0.91341002    0.10820000
opls_146-951    H    0.88013991    0.04768993    0.04266985    0.10910000
opls_140-952    H    0.96115010    0.52629986    0.40825010    0.16130000
opls_140-953    H    0.97095010    0.47039007    0.42715985    0.16130000
opls_140-954    H    0.01706987    0.50757015    0.41833012    0.16130000
opls_140-955    H    0.18388014    0.36386991    0.61632016    0.16130000
opls_140-956    H    0.17602997    0.41911005    0.59472016    0.16130000
opls_140-957    H    0.16205992    0.37153007    0.56114014    0.16130000
opls_146-958    H    0.23501001    0.57183999    0.57251994    0.11090000
opls_146-959    H    0.17979014    0.59948015    0.44290004    0.11600000
opls_146-960    H    0.17491986    0.51918014    0.58658998    0.10820000
opls_146-961    H    0.11986009    0.54768993    0.45733015    0.10910000
opls_140-962    H    0.53884990    0.47370014    0.90825010    0.16130000
opls_140-963    H    0.52904990    0.52960993    0.92715985    0.16130000
opls_140-964    H    0.48293013    0.49242985    0.91833012    0.16130000
opls_140-965    H    0.31611986    0.63613009    0.11632016    0.16130000
opls_140-966    H    0.32397003    0.58088995    0.09472016    0.16130000
opls_140-967    H    0.33794008    0.62846993    0.06114014    0.16130000
opls_146-968    H    0.26498999    0.42816001    0.07251994    0.11090000
opls_146-969    H    0.32020986    0.40051985    0.94290004    0.11600000
opls_146-970    H    0.32508014    0.48081986    0.08658998    0.10820000
opls_146-971    H    0.38013991    0.45231007    0.95733015    0.10910000
opls_140-972    H    0.52629986    0.40825010    0.96115010    0.16130000
opls_140-973    H    0.47039007    0.42715985    0.97095010    0.16130000
opls_140-974    H    0.50757015    0.41833012    0.01706987    0.16130000
opls_140-975    H    0.36386991    0.61632016    0.18388014    0.16130000
opls_140-976    H    0.41911005    0.59472016    0.17602997    0.16130000
opls_140-977    H    0.37153007    0.56114014    0.16205992    0.16130000
opls_146-978    H    0.57183999    0.57251994    0.23501001    0.11090000
opls_146-979    H    0.59948015    0.44290004    0.17979014    0.11600000
opls_146-980    H    0.51918014    0.58658998    0.17491986    0.10820000
opls_146-981    H    0.54768993    0.45733015    0.11986009    0.10910000
opls_140-982    H    0.47370014    0.90825010    0.53884990    0.16130000
opls_140-983    H    0.52960993    0.92715985    0.52904990    0.16130000
opls_140-984    H    0.49242985    0.91833012    0.48293013    0.16130000
opls_140-985    H    0.63613009    0.11632016    0.31611986    0.16130000
opls_140-986    H    0.58088995    0.09472016    0.32397003    0.16130000
opls_140-987    H    0.62846993    0.06114014    0.33794008    0.16130000
opls_146-988    H    0.42816001    0.07251994    0.26498999    0.11090000
opls_146-989    H    0.40051985    0.94290004    0.32020986    0.11600000
opls_146-990    H    0.48081986    0.08658998    0.32508014    0.10820000
opls_146-991    H    0.45231007    0.95733015    0.38013991    0.10910000
opls_140-992    H    0.97370014    0.59174990    0.46115010    0.16130000
opls_140-993    H    0.02960993    0.57284015    0.47095010    0.16140000
opls_140-994    H    0.99242985    0.58166988    0.51706987    0.16130000
opls_140-995    H    0.13613009    0.38367984    0.68388014    0.16130000
opls_140-996    H    0.08088995    0.40527984    0.67602997    0.16130000
opls_140-997    H    0.12846993    0.43885986    0.66205992    0.16130000
opls_146-998    H    0.92816001    0.42748006    0.73501001    0.11090000
opls_146-999    H    0.90051985    0.55709996    0.67979014    0.11600000
opls_146-1000    H    0.98081986    0.41341002    0.67491986    0.10820000
opls_146-1001    H    0.95231007    0.54266985    0.61986009    0.10910000
opls_140-1002    H    0.02629986    0.09174990    0.03884990    0.16130000
opls_140-1003    H    0.97039007    0.07284015    0.02904990    0.16130000
opls_140-1004    H    0.00757015    0.08166988    0.98293013    0.16130000
opls_140-1005    H    0.86386991    0.88367984    0.81611986    0.16130000
opls_140-1006    H    0.91911005    0.90527984    0.82397003    0.16130000
opls_140-1007    H    0.87153007    0.93885986    0.83794008    0.16130000
opls_146-1008    H    0.07183999    0.92748006    0.76498999    0.11090000
opls_146-1009    H    0.09948015    0.05709996    0.82020986    0.11600000
opls_146-1010    H    0.01918014    0.91341002    0.82508014    0.10820000
opls_146-1011    H    0.04768993    0.04266985    0.88013991    0.10910000
opls_140-1012    H    0.90825010    0.53884990    0.47370014    0.16130000
opls_140-1013    H    0.92715985    0.52904990    0.52960993    0.16130000
opls_140-1014    H    0.91833012    0.48293013    0.49242985    0.16130000
opls_140-1015    H    0.11632016    0.31611986    0.63613009    0.16130000
opls_140-1016    H    0.09472016    0.32397003    0.58088995    0.16130000
opls_140-1017    H    0.06114014    0.33794008    0.62846993    0.16130000
opls_146-1018    H    0.07251994    0.26498999    0.42816001    0.11090000
opls_146-1019    H    0.94290004    0.32020986    0.40051985    0.11600000
opls_146-1020    H    0.08658998    0.32508014    0.48081986    0.10820000
opls_146-1021    H    0.95733015    0.38013991    0.45231007    0.10910000
opls_140-1022    H    0.40825010    0.96115010    0.52629986    0.16130000
opls_140-1023    H    0.42715985    0.97095010    0.47039007    0.16130000
opls_140-1024    H    0.41833012    0.01706987    0.50757015    0.16130000
opls_140-1025    H    0.61632016    0.18388014    0.36386991    0.16130000
opls_140-1026    H    0.59472016    0.17602997    0.41911005    0.16130000
opls_140-1027    H    0.56114014    0.16205992    0.37153007    0.16130000
opls_146-1028    H    0.57251994    0.23501001    0.57183999    0.11090000
opls_146-1029    H    0.44290004    0.17979014    0.59948015    0.11600000
opls_146-1030    H    0.58658998    0.17491986    0.51918014    0.10820000
opls_146-1031    H    0.45733015    0.11986009    0.54768993    0.10910000
opls_140-1032    H    0.09174990    0.03884990    0.02629986    0.16130000
opls_140-1033    H    0.07284015    0.02904990    0.97039007    0.16130000
opls_140-1034    H    0.08166988    0.98293013    0.00757015    0.16130000
opls_140-1035    H    0.88367984    0.81611986    0.86386991    0.16130000
opls_140-1036    H    0.90527984    0.82397003    0.91911005    0.16130000
opls_140-1037    H    0.93885986    0.83794008    0.87153007    0.16130000
opls_146-1038    H    0.92748006    0.76498999    0.07183999    0.11090000
opls_146-1039    H    0.05709996    0.82020986    0.09948015    0.11600000
opls_146-1040    H    0.91341002    0.82508014    0.01918014    0.10820000
opls_146-1041    H    0.04266985    0.88013991    0.04768993    0.10910000
opls_140-1042    H    0.59174990    0.46115010    0.97370014    0.16130000
opls_140-1043    H    0.57284015    0.47095010    0.02960993    0.16130000
opls_140-1044    H    0.58166988    0.51706987    0.99242985    0.16130000
opls_140-1045    H    0.38367984    0.68388014    0.13613009    0.16130000
opls_140-1046    H    0.40527984    0.67602997    0.08088995    0.16130000
opls_140-1047    H    0.43885986    0.66205992    0.12846993    0.16130000
opls_146-1048    H    0.42748006    0.73501001    0.92816001    0.11090000
opls_146-1049    H    0.55709996    0.67979014    0.90051985    0.11600000
opls_146-1050    H    0.41341002    0.67491986    0.98081986    0.10820000
opls_146-1051    H    0.54266985    0.61986009    0.95231007    0.10910000
MOF2_Si3-1052    Si    0.76491990    0.73508010    0.26491990    1.24980000
MOF2_Si3-1053    Si    0.82820984    0.67179016    0.32820984    1.24980000
MOF2_Si3-1054    Si    0.73508010    0.26491990    0.76491990    1.24990000
MOF2_Si3-1055    Si    0.67179016    0.32820984    0.82820984    1.24980000
MOF2_Si3-1056    Si    0.23508010    0.23508010    0.23508010    1.24980000
MOF2_Si3-1057    Si    0.17179016    0.17179016    0.17179016    1.24980000
MOF2_Si3-1058    Si    0.26491990    0.76491990    0.73508010    1.24980000
MOF2_Si3-1059    Si    0.32820984    0.82820984    0.67179016    1.24990000
MOF2_Si3-1060    Si    0.98507994    0.01492006    0.51492006    1.24980000
MOF2_Si3-1061    Si    0.92179000    0.07821000    0.57821000    1.24980000
MOF2_Si3-1062    Si    0.51492006    0.98507994    0.01492006    1.24980000
MOF2_Si3-1063    Si    0.57821000    0.92179000    0.07821000    1.24980000
MOF2_Si3-1064    Si    0.48507994    0.48507994    0.48507994    1.24980000
MOF2_Si3-1065    Si    0.42179000    0.42179000    0.42179000    1.24980000
MOF2_Si3-1066    Si    0.01492006    0.51492006    0.98507994    1.24990000
MOF2_Si3-1067    Si    0.07821000    0.57821000    0.92179000    1.24980000
MOF2_Si3-1068    Si    0.23508010    0.76491990    0.26491990    1.24980000
MOF2_Si3-1069    Si    0.17179016    0.82820984    0.32820984    1.24980000
MOF2_Si3-1070    Si    0.26491990    0.23508010    0.76491990    1.24980000
MOF2_Si3-1071    Si    0.32820984    0.17179016    0.82820984    1.25000000
MOF2_Si3-1072    Si    0.76491990    0.26491990    0.23508010    1.24980000
MOF2_Si3-1073    Si    0.82820984    0.32820984    0.17179016    1.24980000
MOF2_Si3-1074    Si    0.73508010    0.73508010    0.73508010    1.24980000
MOF2_Si3-1075    Si    0.67179016    0.67179016    0.67179016    1.24990000
MOF2_Si3-1076    Si    0.51492006    0.01492006    0.48507994    1.24980000
MOF2_Si3-1077    Si    0.57821000    0.07821000    0.42179000    1.24980000
MOF2_Si3-1078    Si    0.98507994    0.98507994    0.98507994    1.24980000
MOF2_Si3-1079    Si    0.92179000    0.92179000    0.92179000    1.24990000
MOF2_Si3-1080    Si    0.01492006    0.48507994    0.51492006    1.24980000
MOF2_Si3-1081    Si    0.07821000    0.42179000    0.57821000    1.24980000
MOF2_Si3-1082    Si    0.48507994    0.51492006    0.01492006    1.24980000
MOF2_Si3-1083    Si    0.42179000    0.57821000    0.07821000    1.24980000
