#======================================================================
# Crystal Data Generated By AuToFF
#----------------------------------------------------------------------

data_AuToFF_phase_1

_cell_length_a                         99.3859
_cell_length_b                         99.1180
_cell_length_c                         7.0743
_cell_angle_alpha                      90.00
_cell_angle_beta                       90.00
_cell_angle_gamma                      120.00
_symmetry_space_group_name_H-M_alt     'P 1'
_symmetry_space_group_IT_number        1

loop_
_space_group_symop_operation_xyz
   'x, y, z'

loop_
   _atom_site_label
   _atom_site_type_symbol
   _atom_site_fract_x
   _atom_site_fract_y
   _atom_site_fract_z
   _atom_site_charge
opls_520-0    N    0.34927995    0.67612992    0.21709003    -0.43940000
opls_750-1    N    0.20121992    0.59950994    0.08936997    -0.33840000
opls_520-2    N    0.67447993    0.32453994    0.20728977    -0.43830000
opls_750-3    N    0.59548003    0.39405998    0.18606929    -0.33120000
opls_520-4    N    0.32527994    0.67520994    0.23105042    -0.46750000
opls_750-5    N    0.40283003    0.60485998    0.07747056    -0.33120000
opls_520-6    N    0.67308999    0.34727001    0.16756004    -0.43610000
opls_750-7    N    0.60506998    0.20022004    0.43724043    -0.33120000
opls_520-8    N    0.32626995    0.65259997    0.16179975    -0.43630000
opls_750-9    N    0.39633002    0.79895993    0.48914946    -0.33120000
opls_520-10    N    0.65053005    0.32360004    0.23451932    -0.46880000
opls_750-11    N    0.79789001    0.40199998    0.03639936    -0.34290000
opls_520-12    N    0.35001993    0.67614996    0.71646947    -0.43620000
opls_750-13    N    0.20197999    0.59893992    0.59137017    -0.34290000
opls_520-14    N    0.67524000    0.32449998    0.70664942    -0.44920000
opls_750-15    N    0.59655999    0.39433002    0.68739946    -0.33840000
opls_520-16    N    0.32596997    0.67513002    0.72991957    -0.46750000
opls_750-17    N    0.40390997    0.60514994    0.57566968    -0.33120000
opls_520-18    N    0.67392999    0.34729995    0.66688012    -0.46880000
opls_750-19    N    0.60459001    0.20020000    0.93685029    -0.33830000
opls_520-20    N    0.32705003    0.65256002    0.66131066    -0.46880000
opls_750-21    N    0.39604999    0.79888002    0.98924982    -0.33840000
opls_520-22    N    0.65133000    0.32366994    0.73327962    -0.43830000
opls_750-23    N    0.79871995    0.40166995    0.53460978    -0.33840000
opls_531-24    C    0.31782001    0.65976993    0.18913956    0.34510000
opls_700-25    C    0.35110995    0.65271997    0.14965014    0.00140000
opls_523-26    C    0.34383001    0.63707994    0.09129949    -0.12240000
opls_145-27    C    0.35235993    0.62944993    0.07184032    -0.12350000
opls_700-28    C    0.36835994    0.63721997    0.11214961    0.07070000
opls_145-29    C    0.37565002    0.65290997    0.16879974    -0.12350000
opls_523-30    C    0.36714998    0.66057994    0.18649054    -0.12150000
opls_700-31    C    0.37735000    0.62894992    0.09816943    0.07030000
opls_145-32    C    0.37049998    0.61312000    0.14729938    -0.12270000
opls_145-33    C    0.37904000    0.60544002    0.13768005    -0.16530000
opls_145-34    C    0.39461004    0.61337001    0.08126034    0.19780000
opls_145-35    C    0.40149000    0.62916999    0.02952942    -0.16270000
opls_145-36    C    0.39293996    0.63683995    0.03813946    -0.12470000
opls_145-37    C    0.00837995    0.51579992    0.09155959    -0.11300000
opls_166-38    C    0.00646002    0.49045996    0.05720001    0.07390000
opls_700-39    C    0.01558996    0.50683998    0.07276056    0.03490000
opls_145-40    C    0.16813003    0.58684002    0.07591988    -0.12540000
opls_145-41    C    0.15196001    0.57995000    0.06840960    -0.11430000
opls_700-42    C    0.14266005    0.56377001    0.05222001    0.11430000
opls_145-43    C    0.14958999    0.55448002    0.04294983    -0.11470000
opls_145-44    C    0.16575002    0.56135000    0.05049970    -0.12150000
opls_700-45    C    0.17517001    0.57756996    0.06742999    0.07030000
opls_142-46    C    0.19219002    0.58450995    0.07749035    0.07340000
opls_261-47    C    0.12601997    0.55665002    0.04760047    -0.11300000
opls_261-48    C    0.11205996    0.55057992    0.04513945    -0.11300000
opls_700-49    C    0.09539996    0.54320993    0.04389975    0.12930000
opls_145-50    C    0.08815992    0.55206992    0.07231952    -0.11530000
opls_145-51    C    0.07193999    0.54481993    0.07470987    -0.11730000
opls_700-52    C    0.06292002    0.52868001    0.04875959    0.12290000
opls_145-53    C    0.07015993    0.51983994    0.01938990    -0.11370000
opls_145-54    C    0.08637000    0.52708993    0.01695998    -0.11520000
opls_261-55    C    0.04625992    0.52113994    0.05543022    -0.08920000
opls_261-56    C    0.03229000    0.51467001    0.06258004    -0.11270000
opls_531-57    C    0.65751996    0.33912998    0.19882957    0.34490000
opls_700-58    C    0.64829003    0.34711996    0.19472033    0.00130000
opls_523-59    C    0.65523003    0.36289001    0.14305020    -0.12150000
opls_145-60    C    0.64653999    0.37042996    0.13927032    -0.12240000
opls_700-61    C    0.63070999    0.36241994    0.18841016    0.07080000
opls_145-62    C    0.62378997    0.34665001    0.24050012    -0.12270000
opls_523-63    C    0.63245003    0.33908000    0.24295973    -0.12150000
opls_700-64    C    0.62146999    0.37047004    0.18575972    0.07030000
opls_145-65    C    0.62824997    0.38622004    0.23849992    -0.12350000
opls_145-66    C    0.61953998    0.39373996    0.23651951    -0.16480000
opls_145-67    C    0.59704001    0.36999997    0.12969057    -0.16370000
opls_145-68    C    0.60576993    0.36248995    0.13031961    -0.12540000
opls_145-69    C    0.49028996    0.48400995    0.22342988    -0.10850000
opls_700-70    C    0.50637996    0.49055001    0.20792022    0.04130000
opls_166-71    C    0.51594001    0.50676996    0.19034958    0.10260000
opls_145-72    C    0.58256002    0.41431995    0.18657959    -0.12730000
opls_145-73    C    0.57556002    0.42354003    0.18797054    -0.11530000
opls_700-74    C    0.55936002    0.41654995    0.18308949    0.12670000
opls_145-75    C    0.55017000    0.40030995    0.17668038    -0.11500000
opls_145-76    C    0.55713995    0.39106995    0.17532053    -0.12270000
opls_700-77    C    0.57339000    0.39798000    0.18036979    0.07680000
opls_142-78    C    0.58048002    0.38797997    0.17922056    0.07170000
opls_261-79    C    0.55218001    0.42605999    0.18511938    -0.11300000
opls_261-80    C    0.54623998    0.43408003    0.18712947    -0.11300000
opls_700-81    C    0.53923002    0.44374001    0.19001032    0.14260000
opls_145-82    C    0.54845002    0.45980001    0.21991999    -0.11470000
opls_145-83    C    0.54165995    0.46919997    0.22367019    -0.11470000
opls_700-84    C    0.52561999    0.46256998    0.19754039    0.12940000
opls_145-85    C    0.51637997    0.44650997    0.16723068    -0.11520000
opls_145-86    C    0.52318000    0.43711002    0.16352007    -0.11530000
opls_261-87    C    0.51866996    0.47227993    0.20180937    -0.11140000
opls_261-88    C    0.51299000    0.48052994    0.20511994    -0.11300000
opls_145-89    C    0.60386003    0.38571001    0.18475043    0.19580000
opls_181-90    C    0.45861995    0.98228992    0.87921066    -0.19370000
opls_181-91    C    0.54036996    0.51691993    0.33843066    -0.19370000
opls_531-92    C    0.34199994    0.66068991    0.17579973    0.34230000
opls_700-93    C    0.34908998    0.70036001    0.28723973    0.00110000
opls_523-94    C    0.36524997    0.70953000    0.26379995    -0.11730000
opls_145-95    C    0.37282994    0.72554993    0.29729019    -0.12350000
opls_700-96    C    0.36449997    0.73280994    0.35750958    0.07130000
opls_145-97    C    0.34834994    0.72352998    0.38421045    -0.12470000
opls_523-98    C    0.34073000    0.70752997    0.34819982    -0.11990000
opls_700-99    C    0.37258999    0.74994999    0.39138996    0.07130000
opls_145-100    C    0.38803000    0.75799997    0.45693991    -0.12350000
opls_145-101    C    0.39561995    0.77407000    0.48661069    -0.16380000
opls_145-102    C    0.38796993    0.78245992    0.45480966    0.19630000
opls_145-103    C    0.37258999    0.77454997    0.38734999    -0.16370000
opls_145-104    C    0.36502999    0.75848996    0.35569032    -0.12630000
opls_145-105    C    0.48362995    0.49348994    0.21644968    -0.11860000
opls_166-106    C    0.50932001    0.51640000    0.18552931    0.07150000
opls_700-107    C    0.49299997    0.50961996    0.19488995    0.03730000
opls_145-108    C    0.41523001    0.58418003    0.08056062    -0.12540000
opls_145-109    C    0.42202002    0.57477996    0.08583040    -0.11470000
opls_700-110    C    0.43813994    0.58145993    0.06833044    0.13360000
opls_145-111    C    0.44743996    0.59757993    0.04439026    -0.11430000
opls_145-112    C    0.44068001    0.60699992    0.03911058    -0.11990000
opls_700-113    C    0.42452997    0.60039998    0.05786014    0.07120000
opls_142-114    C    0.41770001    0.61062998    0.05589952    0.07210000
opls_261-115    C    0.44514996    0.57184002    0.07804023    -0.10420000
opls_261-116    C    0.45109999    0.56384992    0.08788007    -0.11300000
opls_700-117    C    0.45831004    0.55441001    0.10166942    0.13250000
opls_145-118    C    0.44930999    0.53817002    0.08694995    -0.11730000
opls_145-119    C    0.45631999    0.52900993    0.10374030    -0.11520000
opls_700-120    C    0.47233999    0.53607993    0.13549044    0.13640000
opls_145-121    C    0.48135000    0.55231002    0.14933068    -0.11470000
opls_145-122    C    0.47434004    0.56146999    0.13243996    -0.11520000
opls_261-123    C    0.47953999    0.52667998    0.15575958    -0.11140000
opls_261-124    C    0.48564998    0.51889002    0.17352954    -0.11300000
opls_531-125    C    0.65892998    0.31622004    0.23863987    0.34620000
opls_700-126    C    0.65121000    0.29923993    0.27442008    -0.00010000
opls_523-127    C    0.63564996    0.29093995    0.33420975    -0.12270000
opls_145-128    C    0.62831000    0.27487004    0.36433004    -0.12630000
opls_700-129    C    0.63626996    0.26666000    0.33309020    0.07020000
opls_145-130    C    0.65186995    0.27503000    0.27407941    -0.12270000
opls_523-131    C    0.65925995    0.29111994    0.24614025    -0.11650000
opls_700-132    C    0.62834998    0.24947998    0.36107035    0.07200000
opls_145-133    C    0.61242003    0.24001001    0.32166009    -0.12240000
opls_145-134    C    0.60502005    0.22390003    0.34779978    -0.16480000
opls_145-135    C    0.62926993    0.22620995    0.45127999    -0.16370000
opls_145-136    C    0.63665999    0.24233997    0.42654962    -0.12470000
opls_145-137    C    0.51556007    0.00685006    0.76367980    -0.11620000
opls_700-138    C    0.50876004    0.01618000    0.74309967    0.03490000
opls_166-139    C    0.49242004    0.00919003    0.73239048    0.07280000
opls_145-140    C    0.58493998    0.16740000    0.49741034    -0.12730000
opls_145-141    C    0.57577999    0.15132998    0.52519967    -0.11370000
opls_700-142    C    0.58275000    0.14217001    0.54567943    0.12180000
opls_145-143    C    0.59894002    0.14911000    0.53826951    -0.11500000
opls_145-144    C    0.60812999    0.16518002    0.51054945    -0.12130000
opls_700-145    C    0.60122998    0.17445998    0.48965975    0.07040000
opls_142-146    C    0.61117003    0.19140001    0.46057985    0.07170000
opls_261-147    C    0.57329003    0.12564005    0.57402994    -0.11300000
opls_261-148    C    0.56528006    0.11180003    0.59748950    -0.11140000
opls_700-149    C    0.55560997    0.09528999    0.62503993    0.13410000
opls_145-150    C    0.53941006    0.08850005    0.62237960    -0.11470000
opls_145-151    C    0.52998007    0.07244004    0.64792983    -0.11470000
opls_700-152    C    0.53671002    0.06310999    0.67635950    0.13010000
opls_145-153    C    0.55291002    0.06989003    0.67919936    -0.11520000
opls_145-154    C    0.56235003    0.08596005    0.65369012    -0.11530000
opls_261-155    C    0.52697998    0.04658003    0.70135985    -0.08920000
opls_261-156    C    0.51871002    0.03274001    0.72123037    -0.11300000
opls_145-157    C    0.61335001    0.21682001    0.41061024    0.19610000
opls_181-158    C    0.02355005    0.48148999    0.16812971    -0.19370000
opls_181-159    C    0.48766997    0.02946002    0.84034039    -0.19370000
opls_531-160    C    0.34101002    0.68346996    0.24497972    0.36300000
opls_700-161    C    0.30065005    0.65083003    0.17376984    0.00010000
opls_523-162    C    0.29176001    0.65785996    0.21671968    -0.11650000
opls_145-163    C    0.27558003    0.64939000    0.20372051    -0.12370000
opls_700-164    C    0.26787004    0.63371001    0.14605968    0.07060000
opls_145-165    C    0.27679000    0.62671993    0.10216983    -0.12270000
opls_523-166    C    0.29296998    0.63514992    0.11660942    -0.12350000
opls_700-167    C    0.25062002    0.62469998    0.13148015    0.07040000
opls_145-168    C    0.24226000    0.63198002    0.07318039    -0.12240000
opls_145-169    C    0.22606996    0.62351997    0.06100957    -0.16470000
opls_145-170    C    0.21786999    0.60761002    0.10345052    0.19610000
opls_145-171    C    0.22613999    0.60027999    0.16336033    -0.16380000
opls_145-172    C    0.24232993    0.60874995    0.17726984    -0.12540000
opls_145-173    C    0.50633995    0.99066994    0.76771977    -0.11300000
opls_166-174    C    0.48321004    0.99287000    0.73429032    0.10070000
opls_700-175    C    0.49020997    0.98363000    0.75025939    0.04100000
opls_145-176    C    0.41647994    0.83177997    0.54989045    -0.12590000
opls_145-177    C    0.42565000    0.84781994    0.57937040    -0.11530000
opls_700-178    C    0.41866003    0.85694997    0.60345052    0.12260000
opls_145-179    C    0.40245999    0.84996990    0.59830937    -0.11430000
opls_145-180    C    0.39327001    0.83392994    0.56886052    -0.12240000
opls_700-181    C    0.40018995    0.82468993    0.54398032    0.07030000
opls_142-182    C    0.39024999    0.80781002    0.51139053    0.07340000
opls_261-183    C    0.42809998    0.87347993    0.63140947    -0.11140000
opls_261-184    C    0.43599001    0.88735001    0.65346960    -0.11300000
opls_700-185    C    0.44536996    0.90392994    0.67793987    0.13410000
opls_145-186    C    0.46144003    0.91079002    0.70497010    -0.11950000
opls_145-187    C    0.47059000    0.92695999    0.72427943    -0.11530000
opls_700-188    C    0.46370994    0.93629995    0.71681014    0.11430000
opls_145-189    C    0.44763999    0.92941996    0.69098003    -0.11520000
opls_145-190    C    0.43847999    0.91327002    0.67159012    -0.11430000
opls_261-191    C    0.47313999    0.95294000    0.73162998    -0.09800000
opls_261-192    C    0.48096992    0.96690992    0.74157019    -0.11300000
opls_531-193    C    0.68165000    0.34007000    0.17184032    0.36440000
opls_700-194    C    0.69867001    0.34908004    0.14180060    -0.00140000
opls_523-195    C    0.70789001    0.34226994    0.17602024    -0.11730000
opls_145-196    C    0.72400006    0.35094004    0.15496940    -0.12130000
opls_700-197    C    0.73130996    0.36659999    0.09713046    0.07050000
opls_145-198    C    0.72202003    0.37331001    0.05929067    -0.12590000
opls_523-199    C    0.70591998    0.36469001    0.08246046    -0.12350000
opls_700-200    C    0.74852000    0.37594996    0.07896046    0.06990000
opls_145-201    C    0.75713005    0.36898003    0.01916939    -0.12350000
opls_145-202    C    0.77330000    0.37772003    0.00617022    -0.16680000
opls_145-203    C    0.77271005    0.40065001    0.11047029    -0.16370000
opls_145-204    C    0.75654003    0.39189999    0.12505972    -0.12470000
opls_145-205    C    0.99224003    0.50871000    0.09016016    -0.11950000
opls_700-206    C    0.98306998    0.49256996    0.06998007    0.03600000
opls_166-207    C    0.99016996    0.48331994    0.05598010    0.07280000
opls_145-208    C    0.83103004    0.41522001    0.02770027    -0.12630000
opls_145-209    C    0.84723002    0.42237995    0.02507951    -0.11500000
opls_700-210    C    0.85631995    0.43860992    0.01388971    0.13360000
opls_145-211    C    0.84916000    0.44767996    0.00422939    -0.11670000
opls_145-212    C    0.83297002    0.44054996    0.00686004    -0.12270000
opls_700-213    C    0.82375998    0.42427001    0.01925986    0.07040000
opls_142-214    C    0.80669000    0.41703003    0.02597006    0.07340000
opls_261-215    C    0.87298002    0.44594997    0.01524957    -0.08920000
opls_261-216    C    0.88692997    0.45202998    0.01789011    -0.08920000
opls_700-217    C    0.90357005    0.45918001    0.02261001    0.12940000
opls_145-218    C    0.91058001    0.45006000    0.99869952    -0.11370000
opls_145-219    C    0.92675000    0.45696004    0.00590023    -0.11470000
opls_700-220    C    0.93596996    0.47300000    0.03710049    0.11430000
opls_145-221    C    0.92896993    0.48213993    0.06046959    -0.11540000
opls_145-222    C    0.91280000    0.47524002    0.05322929    -0.11520000
opls_261-223    C    0.95256997    0.48002993    0.04728948    -0.08920000
opls_261-224    C    0.96647997    0.48578002    0.05700069    -0.11300000
opls_145-225    C    0.78122995    0.39361996    0.04945931    0.19610000
opls_181-226    C    0.51884001    0.54259995    0.29470054    -0.19380000
opls_181-227    C    0.97051000    0.45822998    0.16919978    -0.19370000
opls_531-228    C    0.31854999    0.65969002    0.68825043    0.34630000
opls_700-229    C    0.35191996    0.65274001    0.64967983    0.00100000
opls_523-230    C    0.34464997    0.63709998    0.59174053    -0.12120000
opls_145-231    C    0.35319995    0.62949001    0.57218947    -0.12450000
opls_700-232    C    0.36920996    0.63728998    0.61174957    0.07060000
opls_145-233    C    0.37648002    0.65297999    0.66825976    -0.12350000
opls_523-234    C    0.36795992    0.66062992    0.68627991    -0.11950000
opls_700-235    C    0.37823996    0.62904999    0.59677000    0.07030000
opls_145-236    C    0.37145998    0.61322998    0.64579958    -0.12370000
opls_145-237    C    0.38004997    0.60559997    0.63576043    -0.16710000
opls_145-238    C    0.39561998    0.61357993    0.57918946    0.19760000
opls_145-239    C    0.40242005    0.62937001    0.52718997    -0.16470000
opls_145-240    C    0.39380004    0.63697998    0.53596964    -0.12590000
opls_166-241    C    0.00958004    0.51824998    0.55922989    0.07280000
opls_145-242    C    0.00762001    0.49286994    0.59080050    -0.11860000
opls_700-243    C    0.01675995    0.50905996    0.57361011    0.03490000
opls_145-244    C    0.16886995    0.58592994    0.57585061    -0.12540000
opls_145-245    C    0.15268996    0.57888999    0.56801945    -0.11500000
opls_700-246    C    0.14353996    0.56269998    0.55159945    0.14830000
opls_145-247    C    0.15061005    0.55355002    0.54234058    -0.11430000
opls_145-248    C    0.16679001    0.56056993    0.55018023    -0.12240000
opls_700-249    C    0.17605992    0.57680993    0.56742010    0.07190000
opls_142-250    C    0.19310001    0.58393002    0.57798934    0.07270000
opls_261-251    C    0.12689002    0.55547002    0.54669013    -0.11300000
opls_261-252    C    0.11294000    0.54948997    0.54405948    -0.11140000
opls_700-253    C    0.09631002    0.54246994    0.54287067    0.12920000
opls_145-254    C    0.08947996    0.55169993    0.57167070    -0.11370000
opls_145-255    C    0.07331003    0.54487002    0.57457982    -0.11430000
opls_700-256    C    0.06390997    0.52876995    0.54857018    0.12940000
opls_145-257    C    0.07072996    0.51953996    0.51857993    -0.11520000
opls_145-258    C    0.08690998    0.52638000    0.51579944    -0.11530000
opls_261-259    C    0.04729004    0.52174002    0.55564932    -0.09660000
opls_261-260    C    0.03337997    0.51593995    0.56322039    -0.11300000
opls_531-261    C    0.65835995    0.33918998    0.69775950    0.34630000
opls_700-262    C    0.64915001    0.34718998    0.69356968    0.00100000
opls_523-263    C    0.65609997    0.36296002    0.64163946    -0.12270000
opls_145-264    C    0.64741003    0.37049998    0.63808999    -0.12270000
opls_700-265    C    0.63159998    0.36250999    0.68804970    0.07070000
opls_145-266    C    0.62466995    0.34673995    0.74014956    -0.12350000
opls_523-267    C    0.63332004    0.33916004    0.74210028    -0.12150000
opls_700-268    C    0.62238005    0.37059003    0.68654991    0.07060000
opls_145-269    C    0.62922000    0.38634003    0.73949931    -0.12150000
opls_145-270    C    0.62055001    0.39390002    0.73803062    -0.16480000
opls_145-271    C    0.59799001    0.37018998    0.63151973    -0.16370000
opls_145-272    C    0.60667002    0.36264000    0.63187029    -0.12350000
opls_166-273    C    0.48862994    0.48151993    0.69126981    0.07280000
opls_700-274    C    0.50492999    0.48853996    0.70900018    0.02430000
opls_145-275    C    0.51406997    0.50471996    0.72465968    -0.11950000
opls_145-276    C    0.58381999    0.41473002    0.68700932    -0.12590000
opls_145-277    C    0.57690002    0.42402000    0.68837058    -0.11430000
opls_700-278    C    0.56070994    0.41710995    0.68344995    0.13530000
opls_145-279    C    0.55144000    0.40087998    0.67689948    -0.11370000
opls_145-280    C    0.55834002    0.39156996    0.67555942    -0.12270000
opls_700-281    C    0.57456998    0.39839998    0.68076983    0.07190000
opls_142-282    C    0.58157004    0.38832002    0.67986939    0.07170000
opls_261-283    C    0.55358997    0.42666997    0.68562967    -0.11140000
opls_261-284    C    0.54758001    0.43462000    0.68771044    -0.11140000
opls_700-285    C    0.54032005    0.44405001    0.69036937    0.13010000
opls_145-286    C    0.54929001    0.46014997    0.71960053    -0.11530000
opls_145-287    C    0.54219999    0.46929002    0.72247996    -0.11520000
opls_700-288    C    0.52613001    0.46235003    0.69609997    0.13640000
opls_145-289    C    0.51716995    0.44624995    0.66685043    -0.11520000
opls_145-290    C    0.52424997    0.43711002    0.66400068    -0.11470000
opls_261-291    C    0.51879996    0.47170001    0.69985016    -0.09800000
opls_261-292    C    0.51253001    0.47940993    0.70360036    -0.11300000
opls_145-293    C    0.60486001    0.38591994    0.68637038    0.19610000
opls_531-294    C    0.34277999    0.66069993    0.67545057    0.34610000
opls_700-295    C    0.34968001    0.70032996    0.78616966    0.00040000
opls_523-296    C    0.36581998    0.70960992    0.76315961    -0.11650000
opls_145-297    C    0.37329003    0.72562996    0.79690005    -0.12240000
opls_700-298    C    0.36483003    0.73275996    0.85687064    0.07010000
opls_145-299    C    0.34869000    0.72336991    0.88302023    -0.12350000
opls_523-300    C    0.34119999    0.70738994    0.84678060    -0.12150000
opls_700-301    C    0.37276000    0.74989000    0.89108039    0.07140000
opls_145-302    C    0.38817995    0.75805997    0.95725938    -0.12370000
opls_145-303    C    0.39562995    0.77412999    0.98703052    -0.16680000
opls_145-304    C    0.38784000    0.78239002    0.95477998    0.19580000
opls_145-305    C    0.37249001    0.77435996    0.88677042    -0.16380000
opls_145-306    C    0.36506997    0.75829996    0.85501039    -0.12730000
opls_166-307    C    0.48174997    0.49092001    0.68446065    0.07280000
opls_145-308    C    0.50725000    0.51403999    0.71709003    -0.11890000
opls_700-309    C    0.49119005    0.50729001    0.69452949    0.02330000
opls_145-310    C    0.41648002    0.58460000    0.57976054    -0.12540000
opls_145-311    C    0.42334992    0.57526995    0.58541057    -0.11500000
opls_700-312    C    0.43946994    0.58201993    0.56823997    0.13530000
opls_145-313    C    0.44871000    0.59813993    0.54412027    -0.11470000
opls_145-314    C    0.44187001    0.60749993    0.53844055    -0.12150000
opls_700-315    C    0.42571997    0.60082998    0.55693991    0.06960000
opls_142-316    C    0.41879000    0.61098996    0.55464004    0.07270000
opls_261-317    C    0.44653001    0.57242997    0.57842048    -0.11300000
opls_261-318    C    0.45237001    0.56433001    0.58857979    -0.11300000
opls_700-319    C    0.45923002    0.55457998    0.60244971    0.13250000
opls_145-320    C    0.44986997    0.53837995    0.58790976    -0.11470000
opls_145-321    C    0.45647997    0.52886000    0.60449939    -0.11520000
opls_700-322    C    0.47247005    0.53551003    0.63574064    0.12940000
opls_145-323    C    0.48184994    0.55171996    0.64940984    -0.11520000
opls_145-324    C    0.47523999    0.56124003    0.63287958    -0.11730000
opls_261-325    C    0.47918994    0.52567996    0.65579068    -0.08920000
opls_261-326    C    0.48469002    0.51734002    0.67330054    -0.11270000
opls_531-327    C    0.65966993    0.31622994    0.73762068    0.34620000
opls_700-328    C    0.65182997    0.29924995    0.77347017    0.00120000
opls_523-329    C    0.63625997    0.29109000    0.83289937    -0.11950000
opls_145-330    C    0.62877003    0.27501998    0.86327976    -0.12270000
opls_700-331    C    0.63658003    0.26667001    0.83259969    0.07020000
opls_145-332    C    0.65219998    0.27488997    0.77400025    -0.12450000
opls_523-333    C    0.65974998    0.29099004    0.74575011    -0.12130000
opls_700-334    C    0.62846995    0.24946997    0.86066042    0.07200000
opls_145-335    C    0.61252994    0.24017998    0.82069039    -0.12270000
opls_145-336    C    0.60494002    0.22405998    0.84681029    -0.16480000
opls_145-337    C    0.62900997    0.22601994    0.95138035    -0.16330000
opls_145-338    C    0.63658996    0.24215998    0.92673056    -0.12470000
opls_166-339    C    0.51698000    0.00621002    0.23234949    0.07280000
opls_700-340    C    0.51017999    0.01577004    0.24307988    0.02930000
opls_145-341    C    0.49408003    0.00897998    0.26363032    -0.11620000
opls_145-342    C    0.58407994    0.16742994    0.99716014    -0.12730000
opls_145-343    C    0.57473001    0.15137995    0.02487031    -0.11670000
opls_700-344    C    0.58151998    0.14205001    0.04565964    0.12180000
opls_145-345    C    0.59769001    0.14880000    0.03861018    -0.11530000
opls_145-346    C    0.60705996    0.16484998    0.01090991    -0.12350000
opls_700-347    C    0.60035000    0.17430003    0.98974033    0.07030000
opls_142-348    C    0.61048998    0.19121000    0.96070989    0.07170000
opls_261-349    C    0.57192002    0.12553998    0.07393947    -0.11300000
opls_261-350    C    0.56396005    0.11169005    0.09734956    -0.11300000
opls_700-351    C    0.55458994    0.09513994    0.12494946    0.13250000
opls_145-352    C    0.53835002    0.08794995    0.12195977    -0.11650000
opls_145-353    C    0.52927002    0.07183997    0.14756937    -0.11520000
opls_700-354    C    0.53640001    0.06289004    0.17649944    0.11440000
opls_145-355    C    0.55263007    0.07008004    0.17967997    -0.11470000
opls_145-356    C    0.56171001    0.08618000    0.15397990    -0.11370000
opls_261-357    C    0.52710006    0.04632001    0.20140933    -0.08910000
opls_261-358    C    0.51937997    0.03240997    0.22124026    -0.11300000
opls_145-359    C    0.61307000    0.21678995    0.91015931    0.19610000
opls_531-360    C    0.34169993    0.68344993    0.74397043    0.34470000
opls_700-361    C    0.30139996    0.65072996    0.67278035    0.00100000
opls_523-362    C    0.29247997    0.65773996    0.71590970    -0.12150000
opls_145-363    C    0.27629999    0.64923995    0.70346041    -0.12350000
opls_700-364    C    0.26860995    0.63354995    0.64606958    0.07070000
opls_145-365    C    0.27756002    0.62660995    0.60135985    -0.12270000
opls_523-366    C    0.29374004    0.63505999    0.61545029    -0.12130000
opls_700-367    C    0.25135999    0.62447001    0.63311988    0.07030000
opls_145-368    C    0.24290003    0.63166001    0.57563999    -0.12350000
opls_145-369    C    0.22670995    0.62310000    0.56383953    -0.16460000
opls_145-370    C    0.21861999    0.60718002    0.60610944    0.19620000
opls_145-371    C    0.22699997    0.59995997    0.66612951    -0.16370000
opls_145-372    C    0.24318002    0.60854002    0.67943966    -0.12370000
opls_166-373    C    0.50737997    0.98993997    0.23431011    0.10210000
opls_145-374    C    0.48463999    0.99281991    0.26770988    -0.12690000
opls_700-375    C    0.49117997    0.98326990    0.25023960    0.04130000
opls_145-376    C    0.41591004    0.83174002    0.05006997    -0.12540000
opls_145-377    C    0.42494000    0.84779000    0.07951034    -0.11370000
opls_700-378    C    0.41780998    0.85678990    0.10324979    0.13360000
opls_145-379    C    0.40159994    0.84966992    0.09790933    -0.11500000
opls_145-380    C    0.39254999    0.83360992    0.06854954    -0.12150000
opls_700-381    C    0.39960999    0.82450994    0.04391954    0.07030000
opls_142-382    C    0.38981996    0.80759997    0.01127037    0.07300000
opls_261-383    C    0.42713998    0.87332999    0.13104053    -0.11140000
opls_261-384    C    0.43504001    0.88719996    0.15297061    -0.11300000
opls_700-385    C    0.44456001    0.90376999    0.17738009    0.12940000
opls_145-386    C    0.46059994    0.91041990    0.20505068    -0.11520000
opls_145-387    C    0.46992998    0.92655994    0.22455932    -0.11520000
opls_700-388    C    0.46326994    0.93608991    0.21649068    0.12670000
opls_145-389    C    0.44723001    0.92943999    0.18987038    -0.11530000
opls_145-390    C    0.43788994    0.91328994    0.17043948    -0.11520000
opls_261-391    C    0.47295995    0.95270991    0.23137978    -0.09660000
opls_261-392    C    0.48120000    0.96662997    0.24144014    -0.11300000
opls_531-393    C    0.68245995    0.34004996    0.67138940    0.34630000
opls_700-394    C    0.69947999    0.34904998    0.64177940    -0.00140000
opls_523-395    C    0.70868996    0.34221996    0.67582941    -0.11990000
opls_145-396    C    0.72479997    0.35087002    0.65445062    -0.12260000
opls_700-397    C    0.73212000    0.36653999    0.59664985    0.07050000
opls_145-398    C    0.72286000    0.37327996    0.55957056    -0.12370000
opls_523-399    C    0.70674994    0.36466997    0.58285060    -0.12240000
opls_700-400    C    0.74933004    0.37585001    0.57726984    0.07030000
opls_145-401    C    0.75787003    0.36882998    0.51665041    -0.12370000
opls_145-402    C    0.77404995    0.37749996    0.50346041    -0.16710000
opls_145-403    C    0.77361001    0.40049996    0.60812943    -0.16380000
opls_145-404    C    0.75743006    0.39180004    0.62314010    -0.12730000
opls_166-405    C    0.99328998    0.51092998    0.55573979    0.10260000
opls_700-406    C    0.98424995    0.49462999    0.56893968    0.04130000
opls_145-407    C    0.99145994    0.48568996    0.58844974    -0.11080000
opls_145-408    C    0.83187000    0.41468995    0.52767058    -0.12730000
opls_145-409    C    0.84806995    0.42174993    0.52509930    -0.11470000
opls_700-410    C    0.85725003    0.43797000    0.51399997    0.11430000
opls_145-411    C    0.85018000    0.44712997    0.50453048    -0.11470000
opls_145-412    C    0.83398996    0.44009993    0.50712014    -0.12150000
opls_700-413    C    0.82469003    0.42382999    0.51926975    0.07680000
opls_142-414    C    0.80763001    0.41669999    0.52560960    0.07240000
opls_261-415    C    0.87391000    0.44524993    0.51516051    -0.11300000
opls_261-416    C    0.88786998    0.45140998    0.51766959    -0.11300000
opls_700-417    C    0.90454001    0.45882994    0.52251954    0.13530000
opls_145-418    C    0.91185997    0.44998999    0.49847052    -0.11540000
opls_145-419    C    0.92805997    0.45720002    0.50646000    -0.11730000
opls_700-420    C    0.93699000    0.47326993    0.53865966    0.13640000
opls_145-421    C    0.92967000    0.48210999    0.56179975    -0.11520000
opls_145-422    C    0.91348002    0.47490998    0.55377069    -0.11520000
opls_261-423    C    0.95361997    0.48067999    0.54930947    -0.09300000
opls_261-424    C    0.96756994    0.48697994    0.55853017    -0.11300000
opls_145-425    C    0.78205998    0.39339000    0.54708028    0.19610000
opls_181-426    C    0.45678000    0.48628002    0.79023932    -0.19380000
opls_181-427    C    0.47920999    0.45555997    0.81017062    -0.19380000
opls_181-428    C    0.02905994    0.54332993    0.67512969    -0.19360000
opls_181-429    C    0.98221002    0.52459001    0.69878009    -0.19370000
opls_181-430    C    0.54316997    0.02307001    0.33942015    -0.19370000
opls_181-431    C    0.51758995    0.97557000    0.37969976    -0.19370000
opls_179-432    O    0.46714996    0.98591999    0.70677947    -0.17730000
opls_179-433    O    0.53199003    0.51336000    0.16495060    -0.17720000
opls_179-434    O    0.01312999    0.48104998    0.02571986    -0.21240000
opls_179-435    O    0.48509005    0.01798000    0.70064035    -0.19720000
opls_179-436    O    0.51913993    0.53241993    0.15370991    -0.19680000
opls_179-437    O    0.98144996    0.46717000    0.02491978    -0.19720000
opls_179-438    O    0.46567996    0.48367001    0.65119941    -0.19720000
opls_179-439    O    0.47907995    0.46540995    0.66328965    -0.19720000
opls_179-440    O    0.01820002    0.53442998    0.53005951    -0.19680000
opls_179-441    O    0.98618001    0.51990996    0.52699066    -0.17760000
opls_179-442    O    0.53294996    0.01240000    0.20025020    -0.19360000
opls_179-443    O    0.51395999    0.98045998    0.20709045    -0.19040000
opls_526-444    H    0.33151998    0.63071999    0.05966951    0.11600000
opls_146-445    H    0.34642993    0.61749996    0.02329983    0.12370000
opls_146-446    H    0.38788005    0.65919001    0.20451069    0.12100000
opls_526-447    H    0.37312999    0.67259993    0.23298984    0.11920000
opls_146-448    H    0.35865002    0.60671998    0.19778070    0.12540000
opls_146-449    H    0.37356999    0.59329002    0.17784940    0.12070000
opls_146-450    H    0.41331995    0.63564993    0.97931951    0.12310000
opls_146-451    H    0.39847993    0.64890991    0.99442065    0.12020000
opls_146-452    H    0.01526997    0.52833995    0.10547051    0.11880000
opls_146-453    H    0.17508006    0.59937003    0.08924982    0.12300000
opls_146-454    H    0.14669997    0.58722993    0.07605982    0.12170000
opls_146-455    H    0.14250003    0.54193999    0.03050054    0.11850000
opls_146-456    H    0.17091001    0.55398002    0.04364955    0.11570000
opls_144-457    H    0.19698994    0.57683998    0.07089041    0.12470000
opls_146-458    H    0.09502993    0.56453994    0.09382978    0.11600000
opls_146-459    H    0.06644000    0.55175002    0.09808038    0.11850000
opls_146-460    H    0.06328995    0.50735001    0.99909956    0.12170000
opls_146-461    H    0.09186005    0.52013002    0.99484048    0.11730000
opls_526-462    H    0.66737003    0.36941002    0.10342931    0.11890000
opls_146-463    H    0.65218000    0.38248000    0.09444044    0.12070000
opls_146-464    H    0.61172003    0.34018999    0.28304002    0.12020000
opls_526-465    H    0.62676001    0.32695995    0.28501053    0.12100000
opls_146-466    H    0.64020998    0.39267995    0.28506990    0.12020000
opls_146-467    H    0.62497004    0.40584999    0.27860990    0.12040000
opls_146-468    H    0.58513997    0.36351001    0.08171975    0.12380000
opls_146-469    H    0.60030005    0.35050002    0.08333969    0.11890000
opls_146-470    H    0.48284000    0.47153994    0.23914027    0.11610000
opls_146-471    H    0.59511002    0.41999000    0.19056020    0.12020000
opls_146-472    H    0.58276998    0.43609998    0.19301980    0.11880000
opls_146-473    H    0.53761998    0.39478995    0.17282982    0.11850000
opls_146-474    H    0.54984996    0.37852002    0.17038011    0.11890000
opls_144-475    H    0.57288006    0.37549003    0.17684011    0.12550000
opls_146-476    H    0.56086995    0.46503996    0.24081959    0.12170000
opls_146-477    H    0.54889003    0.48160999    0.24738985    0.11710000
opls_146-478    H    0.50396997    0.44128995    0.14635936    0.11920000
opls_146-479    H    0.51595002    0.42470000    0.13995024    0.11850000
opls_185-480    H    0.46031001    0.97378991    0.96329955    0.07490000
opls_185-481    H    0.44608001    0.97696995    0.84600031    0.07490000
opls_185-482    H    0.46222004    0.99304999    0.96325997    0.08550000
opls_185-483    H    0.55294004    0.52224002    0.30675968    0.07490000
opls_185-484    H    0.53674001    0.50617000    0.42236970    0.07490000
opls_185-485    H    0.53858002    0.52540002    0.42202055    0.08550000
opls_526-486    H    0.37201993    0.70439991    0.21534993    0.12030000
opls_146-487    H    0.38519999    0.73226997    0.27133003    0.12540000
opls_146-488    H    0.34157999    0.72855999    0.43555970    0.12380000
opls_526-489    H    0.32830001    0.70075995    0.36998996    0.12330000
opls_146-490    H    0.39420996    0.75188001    0.48895014    0.12430000
opls_146-491    H    0.40746995    0.77999996    0.53798962    0.11880000
opls_146-492    H    0.36647996    0.78069999    0.35372970    0.11990000
opls_146-493    H    0.35337003    0.75285999    0.29862036    0.12350000
opls_146-494    H    0.47112003    0.48819000    0.22603933    0.11850000
opls_146-495    H    0.40274995    0.57875998    0.09553030    0.12100000
opls_146-496    H    0.41473001    0.56231996    0.10482026    0.11570000
opls_146-497    H    0.45992999    0.60285995    0.03069986    0.12190000
opls_146-498    H    0.44805997    0.61945001    0.02126995    0.12060000
opls_144-499    H    0.42542999    0.62302998    0.04144014    0.11820000
opls_146-500    H    0.43689996    0.53260994    0.06307055    0.11710000
opls_146-501    H    0.44926998    0.51646000    0.09257029    0.12040000
opls_146-502    H    0.49373997    0.55789002    0.17421936    0.11890000
opls_146-503    H    0.48139004    0.57401002    0.14447931    0.11890000
opls_526-504    H    0.62917005    0.29687003    0.35951967    0.12350000
opls_146-505    H    0.61644002    0.26893997    0.41475058    0.12030000
opls_146-506    H    0.65832003    0.26914000    0.24499951    0.12400000
opls_526-507    H    0.67120992    0.29712993    0.19852989    0.12020000
opls_146-508    H    0.60568004    0.24498003    0.26707943    0.12300000
opls_146-509    H    0.59274998    0.21683993    0.31646947    0.11920000
opls_146-510    H    0.63603998    0.22131996    0.50678936    0.11980000
opls_146-511    H    0.64881995    0.24924000    0.46330944    0.12140000
opls_146-512    H    0.52806000    0.01209000    0.77381932    0.11600000
opls_146-513    H    0.57927999    0.17424994    0.48196005    0.12020000
opls_146-514    H    0.56324998    0.14605998    0.53070975    0.12190000
opls_146-515    H    0.60444999    0.14212003    0.55407037    0.12070000
opls_146-516    H    0.62063995    0.17035997    0.50527967    0.11880000
opls_144-517    H    0.62360998    0.19620996    0.45563943    0.12410000
opls_146-518    H    0.53408995    0.09559999    0.60003958    0.12070000
opls_146-519    H    0.51746996    0.06729994    0.64508997    0.11880000
opls_146-520    H    0.55822004    0.06277005    0.70097960    0.11920000
opls_146-521    H    0.57485999    0.09110994    0.65598010    0.12100000
opls_185-522    H    0.03518999    0.48572002    0.10461954    0.07480000
opls_185-523    H    0.01921997    0.46950997    0.22230044    0.07480000
opls_185-524    H    0.02470000    0.48907002    0.28981949    0.07510000
opls_185-525    H    0.49350000    0.04114997    0.77354933    0.07490000
opls_185-526    H    0.49485000    0.02952001    0.96102936    0.07490000
opls_185-527    H    0.47629006    0.02711003    0.89684068    0.07490000
opls_526-528    H    0.29727993    0.66986992    0.26275957    0.12030000
opls_146-529    H    0.26909999    0.65508999    0.24245932    0.12040000
opls_146-530    H    0.27130003    0.61478999    0.05313035    0.12330000
opls_526-531    H    0.29946001    0.62939995    0.08080941    0.11930000
opls_146-532    H    0.24821999    0.64414994    0.03372065    0.12140000
opls_146-533    H    0.21987001    0.62933996    0.01542061    0.12100000
opls_146-534    H    0.22020996    0.58816995    0.20479058    0.12270000
opls_146-535    H    0.24831996    0.60286996    0.22839998    0.12070000
opls_146-536    H    0.51181002    0.98363000    0.78199963    0.12100000
opls_146-537    H    0.42213998    0.82495997    0.53110979    0.12020000
opls_146-538    H    0.43818000    0.85312000    0.58285060    0.11600000
opls_146-539    H    0.39693998    0.85693995    0.61671968    0.12170000
opls_146-540    H    0.38074996    0.82872995    0.56496049    0.11850000
opls_144-541    H    0.37777993    0.80291992    0.51059045    0.12470000
opls_146-542    H    0.46687998    0.90366992    0.70992042    0.11600000
opls_146-543    H    0.48301995    0.93217000    0.74392943    0.12170000
opls_146-544    H    0.44220997    0.93655997    0.68450023    0.11660000
opls_146-545    H    0.42607993    0.90806991    0.65029049    0.12100000
opls_526-546    H    0.70269999    0.33030995    0.22339030    0.11890000
opls_146-547    H    0.73075002    0.34543995    0.18906040    0.12330000
opls_146-548    H    0.72716998    0.38521001    0.00978047    0.11890000
opls_526-549    H    0.69914000    0.37024997    0.05266952    0.11570000
opls_146-550    H    0.75137999    0.35681000    0.97970965    0.12020000
opls_146-551    H    0.77970005    0.37213001    0.95987023    0.12020000
opls_146-552    H    0.77843999    0.41275003    0.15268931    0.12430000
opls_146-553    H    0.75037999    0.39755001    0.17773066    0.12370000
opls_146-554    H    0.98688994    0.51587996    0.10322011    0.12170000
opls_146-555    H    0.82423993    0.40264992    0.03755990    0.12070000
opls_146-556    H    0.85265997    0.41525997    0.03291068    0.11600000
opls_146-557    H    0.85609997    0.46024993    0.99561935    0.11880000
opls_146-558    H    0.82762002    0.44774997    0.00019931    0.11710000
opls_144-559    H    0.80167999    0.42452001    0.01951995    0.09080000
opls_146-560    H    0.90354992    0.43762995    0.97491059    0.11570000
opls_146-561    H    0.93205003    0.44978996    0.98758040    0.11710000
opls_146-562    H    0.93601001    0.49455997    0.08518016    0.12180000
opls_146-563    H    0.90748993    0.48238994    0.07241989    0.11600000
opls_185-564    H    0.51106000    0.53631002    0.41547998    0.07490000
opls_185-565    H    0.51497996    0.55026992    0.22920006    0.07470000
opls_185-566    H    0.53075999    0.54999999    0.35078948    0.07490000
opls_185-567    H    0.97319003    0.44929997    0.22210961    0.09070000
opls_185-568    H    0.95864997    0.45221998    0.10796969    0.07490000
opls_185-569    H    0.97072997    0.46536999    0.29146064    0.07490000
opls_526-570    H    0.33233995    0.63070997    0.56043001    0.11890000
opls_146-571    H    0.34727002    0.61752000    0.52386950    0.11920000
opls_146-572    H    0.38872001    0.65929998    0.70335015    0.12070000
opls_526-573    H    0.37391997    0.67265002    0.73251064    0.12060000
opls_146-574    H    0.35961002    0.60678999    0.69665974    0.11890000
opls_146-575    H    0.37462997    0.59344997    0.67601035    0.12040000
opls_146-576    H    0.41424002    0.63588001    0.47662949    0.12330000
opls_146-577    H    0.39928994    0.64903993    0.49198931    0.12330000
opls_146-578    H    0.01299999    0.48573994    0.60442023    0.11880000
opls_146-579    H    0.17571003    0.59847999    0.58938976    0.11600000
opls_146-580    H    0.14732001    0.58606997    0.57563010    0.11790000
opls_146-581    H    0.14361995    0.54099998    0.52969057    0.11710000
opls_146-582    H    0.17206995    0.55330992    0.54336966    0.11600000
opls_144-583    H    0.19804000    0.57637993    0.57057942    0.09740000
opls_146-584    H    0.09665004    0.56415002    0.59326011    0.12190000
opls_146-585    H    0.06816000    0.55209998    0.59842953    0.12350000
opls_146-586    H    0.06354999    0.50708998    0.49817933    0.11890000
opls_146-587    H    0.09207997    0.51914002    0.49331948    0.11600000
opls_526-588    H    0.66822998    0.36946000    0.60165953    0.12070000
opls_146-589    H    0.65304998    0.38254000    0.59309048    0.12350000
opls_146-590    H    0.61261000    0.34029996    0.78326053    0.12100000
opls_526-591    H    0.62761996    0.32703998    0.78429951    0.11920000
opls_146-592    H    0.64119003    0.39277000    0.78564946    0.12540000
opls_146-593    H    0.62601996    0.40600995    0.78008001    0.11890000
opls_146-594    H    0.58607994    0.36372995    0.58384999    0.12380000
opls_146-595    H    0.60114997    0.35064996    0.58498933    0.12020000
opls_146-596    H    0.52655000    0.51018998    0.74050012    0.11880000
opls_146-597    H    0.59635996    0.42032994    0.69108039    0.12300000
opls_146-598    H    0.58416995    0.43657995    0.69351031    0.11710000
opls_146-599    H    0.53889997    0.39541997    0.67299945    0.11880000
opls_146-600    H    0.55098996    0.37902002    0.67057942    0.11570000
opls_144-601    H    0.57391998    0.37583999    0.67714968    0.12550000
opls_146-602    H    0.56173000    0.46562000    0.74048033    0.11790000
opls_146-603    H    0.54922998    0.48172998    0.74561017    0.11710000
opls_146-604    H    0.50472996    0.44077002    0.64608937    0.11570000
opls_146-605    H    0.51721992    0.42466994    0.64106979    0.11850000
opls_526-606    H    0.37269004    0.70457000    0.71497957    0.11600000
opls_146-607    H    0.38565995    0.73243994    0.77147986    0.12450000
opls_146-608    H    0.34182000    0.72829997    0.93418006    0.12460000
opls_526-609    H    0.32875997    0.70052998    0.86823007    0.11850000
opls_146-610    H    0.39445000    0.75203996    0.98962017    0.12430000
opls_146-611    H    0.40745996    0.78015991    0.03885049    0.12330000
opls_146-612    H    0.36627997    0.78040001    0.85277978    0.12270000
opls_146-613    H    0.35341994    0.75257993    0.79744003    0.12020000
opls_146-614    H    0.51457000    0.52657001    0.72668957    0.12040000
opls_146-615    H    0.40399999    0.57912998    0.59451960    0.12350000
opls_146-616    H    0.41608999    0.56280995    0.60448949    0.12040000
opls_146-617    H    0.46119995    0.60347995    0.53064049    0.11600000
opls_146-618    H    0.44920994    0.61995992    0.52049955    0.11920000
opls_144-619    H    0.42646995    0.62339998    0.54041955    0.11820000
opls_146-620    H    0.43748995    0.53311996    0.56434983    0.12100000
opls_146-621    H    0.44913005    0.51634001    0.59354000    0.11600000
opls_146-622    H    0.49421993    0.55696993    0.67386031    0.11880000
opls_146-623    H    0.48256999    0.57376002    0.64473941    0.11710000
opls_526-624    H    0.62988001    0.29712003    0.85784035    0.12140000
opls_146-625    H    0.61690001    0.26919999    0.91346988    0.12370000
opls_146-626    H    0.65854998    0.26887997    0.74558048    0.12140000
opls_526-627    H    0.67171002    0.29689997    0.69846063    0.12060000
opls_146-628    H    0.60593004    0.24528001    0.76558953    0.12320000
opls_146-629    H    0.59266005    0.21714003    0.81505025    0.11850000
opls_146-630    H    0.63562999    0.22098002    0.00729966    0.12430000
opls_146-631    H    0.64875995    0.24893000    0.96397948    0.12030000
opls_146-632    H    0.48876005    0.01620003    0.27370058    0.11860000
opls_146-633    H    0.57858005    0.17443004    0.98147944    0.12080000
opls_146-634    H    0.56223005    0.14626000    0.03010050    0.12070000
opls_146-635    H    0.60305999    0.14168002    0.05464004    0.11880000
opls_146-636    H    0.61956005    0.16988000    0.00591013    0.11710000
opls_144-637    H    0.62291001    0.19587002    0.95622040    0.12400000
opls_146-638    H    0.53273000    0.09477997    0.09921971    0.12170000
opls_146-639    H    0.51671996    0.06636994    0.14431958    0.11790000
opls_146-640    H    0.55826002    0.06326004    0.20188994    0.12040000
opls_146-641    H    0.57426004    0.09162999    0.15655966    0.12170000
opls_526-642    H    0.29798992    0.66974993    0.76195949    0.12330000
opls_146-643    H    0.26980003    0.65489999    0.74272932    0.12060000
opls_146-644    H    0.27208998    0.61468002    0.55231048    0.12020000
opls_526-645    H    0.30025002    0.62933996    0.57932940    0.11890000
opls_146-646    H    0.24876997    0.64382992    0.53620994    0.12140000
opls_146-647    H    0.22041999    0.62883995    0.51842020    0.11850000
opls_146-648    H    0.22114993    0.58784993    0.70770960    0.11900000
opls_146-649    H    0.24924997    0.60272993    0.73029982    0.11880000
opls_146-650    H    0.47218994    0.98776997    0.28200953    0.11880000
opls_146-651    H    0.42168995    0.82501997    0.03149994    0.11570000
opls_146-652    H    0.43747991    0.85319991    0.08316017    0.11600000
opls_146-653    H    0.39596995    0.85653000    0.11607933    0.11880000
opls_146-654    H    0.38001998    0.82829996    0.06446009    0.11600000
opls_144-655    H    0.37733999    0.80260002    0.01021020    0.12280000
opls_146-656    H    0.46588004    0.90316001    0.21049998    0.11890000
opls_146-657    H    0.48233998    0.93159997    0.24486946    0.11970000
opls_146-658    H    0.44197999    0.93672994    0.18273045    0.11790000
opls_146-659    H    0.42549993    0.90825992    0.14855039    0.11830000
opls_526-660    H    0.70349001    0.33024995    0.72297047    0.12040000
opls_146-661    H    0.73154000    0.34535002    0.68794934    0.12350000
opls_146-662    H    0.72800994    0.38517995    0.51022999    0.12030000
opls_526-663    H    0.69999002    0.37024997    0.55334945    0.11880000
opls_146-664    H    0.75206997    0.35665995    0.47694047    0.12030000
opls_146-665    H    0.78039995    0.37184995    0.45691022    0.11710000
opls_146-666    H    0.77938999    0.41258996    0.65036965    0.12380000
opls_146-667    H    0.75132997    0.39750993    0.67614040    0.12060000
opls_146-668    H    0.98458997    0.47313001    0.60067993    0.11570000
opls_146-669    H    0.82500999    0.40212999    0.53738038    0.12300000
opls_146-670    H    0.85342997    0.41455993    0.53282021    0.12170000
opls_146-671    H    0.85719000    0.45969994    0.49600950    0.11850000
opls_146-672    H    0.82873001    0.44736996    0.50053009    0.12020000
opls_144-673    H    0.80272004    0.42428002    0.51997936    0.09080000
opls_146-674    H    0.90504994    0.43755993    0.47408931    0.12070000
opls_146-675    H    0.93361993    0.45026993    0.48798044    0.11710000
opls_146-676    H    0.93647997    0.49453993    0.58707010    0.11790000
opls_146-677    H    0.90792996    0.48183995    0.57298955    0.11570000
opls_185-678    H    0.44769000    0.47487002    0.84633957    0.07480000
opls_185-679    H    0.45099997    0.49216001    0.72287011    0.07470000
opls_185-680    H    0.46386001    0.49346000    0.91121948    0.07510000
opls_185-681    H    0.48667999    0.46212996    0.93188019    0.07510000
opls_185-682    H    0.48335999    0.44790002    0.75154998    0.07470000
opls_185-683    H    0.46719002    0.44814001    0.86312003    0.07490000
opls_185-684    H    0.04092998    0.54952002    0.61417949    0.09070000
opls_185-685    H    0.02891999    0.53613993    0.79636996    0.07490000
opls_185-686    H    0.02623004    0.55212002    0.72943047    0.07480000
opls_185-687    H    0.97369998    0.51425994    0.78086030    0.07530000
opls_185-688    H    0.97679992    0.53173993    0.66466930    0.09070000
opls_185-689    H    0.99277995    0.53176999    0.78527063    0.08560000
opls_185-690    H    0.55074997    0.03452999    0.27188980    0.09070000
opls_185-691    H    0.55059997    0.01861002    0.39645053    0.07490000
opls_185-692    H    0.53695001    0.02470995    0.45978966    0.07490000
opls_185-693    H    0.52281995    0.96824999    0.34675940    0.07450000
opls_185-694    H    0.50690002    0.96848997    0.46448977    0.07540000
opls_185-695    H    0.52612000    0.98581992    0.46296029    0.08560000
