#======================================================================
# Crystal Data Generated By AuToFF
#----------------------------------------------------------------------

data_AuToFF_phase_1

_cell_length_a                         44.8860
_cell_length_b                         44.8860
_cell_length_c                         44.8860
_cell_angle_alpha                      90.00
_cell_angle_beta                       90.00
_cell_angle_gamma                      90.00
_symmetry_space_group_name_H-M_alt     'P 1'
_symmetry_space_group_IT_number        1

loop_
_space_group_symop_operation_xyz
   'x, y, z'

loop_
   _atom_site_label
   _atom_site_type_symbol
   _atom_site_fract_x
   _atom_site_fract_y
   _atom_site_fract_z
   _atom_site_charge
opls_700-0    C    0.22644990    0.21781001    0.18335004    0.03880000
opls_700-1    C    0.23477008    0.19173996    0.20018001    0.04180000
opls_166-2    C    0.25260995    0.14165998    0.23454997    0.17490000
opls_166-3    C    0.26777993    0.14872989    0.20881990    0.17490000
opls_145-4    C    0.25958005    0.17328009    0.19136991    -0.21750000
opls_145-5    C    0.22786994    0.15826004    0.24387003    -0.21750000
opls_145-6    C    0.35228000    0.05035000    0.21728000    -0.06080000
opls_145-7    C    0.34986989    0.03287996    0.24347993    -0.22300000
opls_145-8    C    0.32755002    0.03978011    0.26475003    -0.06180000
opls_145-9    C    0.30811010    0.06409994    0.26007998    -0.05900000
opls_145-10    C    0.31074990    0.08179989    0.23402999    -0.19740000
opls_145-11    C    0.33293989    0.07478011    0.21265005    -0.05900000
opls_700-12    C    0.27355010    0.78218999    0.68335004    0.03880000
opls_700-13    C    0.26522992    0.80826004    0.70018001    0.04180000
opls_166-14    C    0.24739005    0.85834002    0.73454997    0.17490000
opls_166-15    C    0.23222007    0.85127011    0.70881990    0.17490000
opls_145-16    C    0.24041995    0.82671991    0.69136991    -0.21750000
opls_145-17    C    0.27213006    0.84173996    0.74387003    -0.21750000
opls_145-18    C    0.14772000    0.94965000    0.71728000    -0.06080000
opls_145-19    C    0.15013011    0.96712004    0.74347993    -0.22300000
opls_145-20    C    0.17244998    0.96021989    0.76475003    -0.06180000
opls_145-21    C    0.19188990    0.93590006    0.76007998    -0.05900000
opls_145-22    C    0.18925010    0.91820011    0.73402999    -0.19740000
opls_145-23    C    0.16706011    0.92521989    0.71265005    -0.05900000
opls_700-24    C    0.77355010    0.71781001    0.31664996    0.03880000
opls_700-25    C    0.76522992    0.69173996    0.29981999    0.04180000
opls_166-26    C    0.74739005    0.64165998    0.26545003    0.17500000
opls_166-27    C    0.73222007    0.64872989    0.29118010    0.17500000
opls_145-28    C    0.74041995    0.67328009    0.30863009    -0.21750000
opls_145-29    C    0.77213006    0.65826004    0.25612997    -0.21750000
opls_145-30    C    0.64772000    0.55035000    0.28272000    -0.06080000
opls_145-31    C    0.65013011    0.53287996    0.25652007    -0.22300000
opls_145-32    C    0.67244998    0.53978011    0.23524997    -0.06180000
opls_145-33    C    0.69188990    0.56409994    0.23992002    -0.05900000
opls_145-34    C    0.68925010    0.58179989    0.26597001    -0.19740000
opls_145-35    C    0.66706011    0.57478011    0.28734995    -0.05900000
opls_700-36    C    0.72644990    0.28218999    0.81664996    0.03880000
opls_700-37    C    0.73477008    0.30826004    0.79981999    0.04180000
opls_166-38    C    0.75260995    0.35834002    0.76545003    0.17490000
opls_166-39    C    0.76777993    0.35127011    0.79118010    0.17490000
opls_145-40    C    0.75958005    0.32671991    0.80863009    -0.21750000
opls_145-41    C    0.72786994    0.34173996    0.75612997    -0.21750000
opls_145-42    C    0.85228000    0.44965000    0.78272000    -0.06080000
opls_145-43    C    0.84986989    0.46712004    0.75652007    -0.22300000
opls_145-44    C    0.82755002    0.46021989    0.73524997    -0.06180000
opls_145-45    C    0.80811010    0.43590006    0.73992002    -0.05900000
opls_145-46    C    0.81074990    0.41820011    0.76597001    -0.19740000
opls_145-47    C    0.83293989    0.42521989    0.78734995    -0.05900000
opls_700-48    C    0.18335004    0.22644990    0.21781001    0.03880000
opls_700-49    C    0.20018001    0.23477008    0.19173996    0.04180000
opls_166-50    C    0.23454997    0.25260995    0.14165998    0.17490000
opls_166-51    C    0.20881990    0.26777993    0.14872989    0.17490000
opls_145-52    C    0.19136991    0.25958005    0.17328009    -0.21750000
opls_145-53    C    0.24387003    0.22786994    0.15826004    -0.21750000
opls_145-54    C    0.21728000    0.35228000    0.05035000    -0.06080000
opls_145-55    C    0.24347993    0.34986989    0.03287996    -0.22300000
opls_145-56    C    0.26475003    0.32755002    0.03978011    -0.06180000
opls_145-57    C    0.26007998    0.30811010    0.06409994    -0.05900000
opls_145-58    C    0.23402999    0.31074990    0.08179989    -0.19740000
opls_145-59    C    0.21265005    0.33293989    0.07478011    -0.05900000
opls_700-60    C    0.68335004    0.27355010    0.78218999    0.03880000
opls_700-61    C    0.70018001    0.26522992    0.80826004    0.04180000
opls_166-62    C    0.73454997    0.24739005    0.85834002    0.17490000
opls_166-63    C    0.70881990    0.23222007    0.85127011    0.17490000
opls_145-64    C    0.69136991    0.24041995    0.82671991    -0.21750000
opls_145-65    C    0.74387003    0.27213006    0.84173996    -0.21750000
opls_145-66    C    0.71728000    0.14772000    0.94965000    -0.06080000
opls_145-67    C    0.74347993    0.15013011    0.96712004    -0.22300000
opls_145-68    C    0.76475003    0.17244998    0.96021989    -0.06180000
opls_145-69    C    0.76007998    0.19188990    0.93590006    -0.05900000
opls_145-70    C    0.73402999    0.18925010    0.91820011    -0.19740000
opls_145-71    C    0.71265005    0.16706011    0.92521989    -0.05900000
opls_700-72    C    0.31664996    0.77355010    0.71781001    0.03880000
opls_700-73    C    0.29981999    0.76522992    0.69173996    0.04180000
opls_166-74    C    0.26545003    0.74739005    0.64165998    0.17490000
opls_166-75    C    0.29118010    0.73222007    0.64872989    0.17490000
opls_145-76    C    0.30863009    0.74041995    0.67328009    -0.21750000
opls_145-77    C    0.25612997    0.77213006    0.65826004    -0.21750000
opls_145-78    C    0.28272000    0.64772000    0.55035000    -0.06080000
opls_145-79    C    0.25652007    0.65013011    0.53287996    -0.22290000
opls_145-80    C    0.23524997    0.67244998    0.53978011    -0.06180000
opls_145-81    C    0.23992002    0.69188990    0.56409994    -0.05900000
opls_145-82    C    0.26597001    0.68925010    0.58179989    -0.19740000
opls_145-83    C    0.28734995    0.66706011    0.57478011    -0.05900000
opls_700-84    C    0.81664996    0.72644990    0.28218999    0.03880000
opls_700-85    C    0.79981999    0.73477008    0.30826004    0.04180000
opls_166-86    C    0.76545003    0.75260995    0.35834002    0.17490000
opls_166-87    C    0.79118010    0.76777993    0.35127011    0.17490000
opls_145-88    C    0.80863009    0.75958005    0.32671991    -0.21750000
opls_145-89    C    0.75612997    0.72786994    0.34173996    -0.21750000
opls_145-90    C    0.78272000    0.85228000    0.44965000    -0.06080000
opls_145-91    C    0.75652007    0.84986989    0.46712004    -0.22300000
opls_145-92    C    0.73524997    0.82755002    0.46021989    -0.06180000
opls_145-93    C    0.73992002    0.80811010    0.43590006    -0.05900000
opls_145-94    C    0.76597001    0.81074990    0.41820011    -0.19730000
opls_145-95    C    0.78734995    0.83293989    0.42521989    -0.05900000
opls_700-96    C    0.71781001    0.31664996    0.77355010    0.03880000
opls_700-97    C    0.69173996    0.29981999    0.76522992    0.04180000
opls_166-98    C    0.64165998    0.26545003    0.74739005    0.17490000
opls_166-99    C    0.64872989    0.29118010    0.73222007    0.17490000
opls_145-100    C    0.67328009    0.30863009    0.74041995    -0.21750000
opls_145-101    C    0.65826004    0.25612997    0.77213006    -0.21750000
opls_145-102    C    0.55035000    0.28272000    0.64772000    -0.06080000
opls_145-103    C    0.53287996    0.25652007    0.65013011    -0.22300000
opls_145-104    C    0.53978011    0.23524997    0.67244998    -0.06180000
opls_145-105    C    0.56409994    0.23992002    0.69188990    -0.05900000
opls_145-106    C    0.58179989    0.26597001    0.68925010    -0.19740000
opls_145-107    C    0.57478011    0.28734995    0.66706011    -0.05900000
opls_700-108    C    0.28218999    0.81664996    0.72644990    0.03880000
opls_700-109    C    0.30826004    0.79981999    0.73477008    0.04180000
opls_166-110    C    0.35834002    0.76545003    0.75260995    0.17490000
opls_166-111    C    0.35127011    0.79118010    0.76777993    0.17490000
opls_145-112    C    0.32671991    0.80863009    0.75958005    -0.21750000
opls_145-113    C    0.34173996    0.75612997    0.72786994    -0.21750000
opls_145-114    C    0.44965000    0.78272000    0.85228000    -0.06080000
opls_145-115    C    0.46712004    0.75652007    0.84986989    -0.22290000
opls_145-116    C    0.46021989    0.73524997    0.82755002    -0.06180000
opls_145-117    C    0.43590006    0.73992002    0.80811010    -0.05900000
opls_145-118    C    0.41820011    0.76597001    0.81074990    -0.19740000
opls_145-119    C    0.42521989    0.78734995    0.83293989    -0.05900000
opls_700-120    C    0.21781001    0.18335004    0.22644990    0.03880000
opls_700-121    C    0.19173996    0.20018001    0.23477008    0.04180000
opls_166-122    C    0.14165998    0.23454997    0.25260995    0.17490000
opls_166-123    C    0.14872989    0.20881990    0.26777993    0.17490000
opls_145-124    C    0.17328009    0.19136991    0.25958005    -0.21750000
opls_145-125    C    0.15826004    0.24387003    0.22786994    -0.21750000
opls_145-126    C    0.05035000    0.21728000    0.35228000    -0.06080000
opls_145-127    C    0.03287996    0.24347993    0.34986989    -0.22300000
opls_145-128    C    0.03978011    0.26475003    0.32755002    -0.06180000
opls_145-129    C    0.06409994    0.26007998    0.30811010    -0.05900000
opls_145-130    C    0.08179989    0.23402999    0.31074990    -0.19740000
opls_145-131    C    0.07478011    0.21265005    0.33293989    -0.05900000
opls_700-132    C    0.78218999    0.68335004    0.27355010    0.03880000
opls_700-133    C    0.80826004    0.70018001    0.26522992    0.04180000
opls_166-134    C    0.85834002    0.73454997    0.24739005    0.17490000
opls_166-135    C    0.85127011    0.70881990    0.23222007    0.17490000
opls_145-136    C    0.82671991    0.69136991    0.24041995    -0.21750000
opls_145-137    C    0.84173996    0.74387003    0.27213006    -0.21750000
opls_145-138    C    0.94965000    0.71728000    0.14772000    -0.06080000
opls_145-139    C    0.96712004    0.74347993    0.15013011    -0.22300000
opls_145-140    C    0.96021989    0.76475003    0.17244998    -0.06180000
opls_145-141    C    0.93590006    0.76007998    0.19188990    -0.05900000
opls_145-142    C    0.91820011    0.73402999    0.18925010    -0.19740000
opls_145-143    C    0.92521989    0.71265005    0.16706011    -0.05900000
opls_700-144    C    0.46781001    0.47644990    0.43335004    0.03880000
opls_700-145    C    0.44173996    0.48477008    0.45018001    0.04180000
opls_166-146    C    0.39165998    0.50260995    0.48454997    0.17490000
opls_166-147    C    0.39872989    0.51777993    0.45881990    0.17490000
opls_145-148    C    0.42328009    0.50958005    0.44136991    -0.21750000
opls_145-149    C    0.40826004    0.47786994    0.49387003    -0.21750000
opls_145-150    C    0.30035000    0.60228000    0.46728000    -0.06080000
opls_145-151    C    0.28287996    0.59986989    0.49347993    -0.22300000
opls_145-152    C    0.28978011    0.57755002    0.51475003    -0.06180000
opls_145-153    C    0.31409994    0.55811010    0.51007998    -0.05900000
opls_145-154    C    0.33179989    0.56074990    0.48402999    -0.19740000
opls_145-155    C    0.32478011    0.58293989    0.46265005    -0.05900000
opls_700-156    C    0.03218999    0.52355010    0.93335004    0.03880000
opls_700-157    C    0.05826004    0.51522992    0.95018001    0.04180000
opls_166-158    C    0.10834002    0.49739005    0.98454997    0.17500000
opls_166-159    C    0.10127011    0.48222007    0.95881990    0.17490000
opls_145-160    C    0.07671991    0.49041995    0.94136991    -0.21750000
opls_145-161    C    0.09173996    0.52213006    0.99387003    -0.21750000
opls_145-162    C    0.19965000    0.39772000    0.96728000    -0.06080000
opls_145-163    C    0.21712004    0.40013011    0.99347993    -0.22300000
opls_145-164    C    0.21021989    0.42244998    0.01475003    -0.06180000
opls_145-165    C    0.18590006    0.44188990    0.01007998    -0.05900000
opls_145-166    C    0.16820011    0.43925010    0.98402999    -0.19740000
opls_145-167    C    0.17521989    0.41706011    0.96265005    -0.05900000
opls_700-168    C    0.96781001    0.02355010    0.56664996    0.03880000
opls_700-169    C    0.94173996    0.01522992    0.54981999    0.04180000
opls_166-170    C    0.89165998    0.99739005    0.51545003    0.17490000
opls_166-171    C    0.89872989    0.98222007    0.54118010    0.17500000
opls_145-172    C    0.92328009    0.99041995    0.55863009    -0.21750000
opls_145-173    C    0.90826004    0.02213006    0.50612997    -0.21750000
opls_145-174    C    0.80035000    0.89772000    0.53272000    -0.06080000
opls_145-175    C    0.78287996    0.90013011    0.50652007    -0.22300000
opls_145-176    C    0.78978011    0.92244998    0.48524997    -0.06180000
opls_145-177    C    0.81409994    0.94188990    0.48992002    -0.05900000
opls_145-178    C    0.83179989    0.93925010    0.51597001    -0.19740000
opls_145-179    C    0.82478011    0.91706011    0.53734995    -0.05900000
opls_700-180    C    0.53218999    0.97644990    0.06664996    0.03880000
opls_700-181    C    0.55826004    0.98477008    0.04981999    0.04180000
opls_166-182    C    0.60834002    0.00260995    0.01545003    0.17490000
opls_166-183    C    0.60127011    0.01777993    0.04118010    0.17490000
opls_145-184    C    0.57671991    0.00958005    0.05863009    -0.21750000
opls_145-185    C    0.59173996    0.97786994    0.00612997    -0.21750000
opls_145-186    C    0.69965000    0.10228000    0.03272000    -0.06080000
opls_145-187    C    0.71712004    0.09986989    0.00652007    -0.22300000
opls_145-188    C    0.71021989    0.07755002    0.98524997    -0.06180000
opls_145-189    C    0.68590006    0.05811010    0.98992002    -0.05900000
opls_145-190    C    0.66820011    0.06074990    0.01597001    -0.19730000
opls_145-191    C    0.67521989    0.08293989    0.03734995    -0.05900000
opls_700-192    C    0.47644990    0.43335004    0.46781001    0.03880000
opls_700-193    C    0.48477008    0.45018001    0.44173996    0.04180000
opls_166-194    C    0.50260995    0.48454997    0.39165998    0.17490000
opls_166-195    C    0.51777993    0.45881990    0.39872989    0.17490000
opls_145-196    C    0.50958005    0.44136991    0.42328009    -0.21750000
opls_145-197    C    0.47786994    0.49387003    0.40826004    -0.21750000
opls_145-198    C    0.60228000    0.46728000    0.30035000    -0.06080000
opls_145-199    C    0.59986989    0.49347993    0.28287996    -0.22300000
opls_145-200    C    0.57755002    0.51475003    0.28978011    -0.06180000
opls_145-201    C    0.55811010    0.51007998    0.31409994    -0.05900000
opls_145-202    C    0.56074990    0.48402999    0.33179989    -0.19740000
opls_145-203    C    0.58293989    0.46265005    0.32478011    -0.05900000
opls_700-204    C    0.52355010    0.93335004    0.03218999    0.03880000
opls_700-205    C    0.51522992    0.95018001    0.05826004    0.04180000
opls_166-206    C    0.49739005    0.98454997    0.10834002    0.17490000
opls_166-207    C    0.48222007    0.95881990    0.10127011    0.17490000
opls_145-208    C    0.49041995    0.94136991    0.07671991    -0.21750000
opls_145-209    C    0.52213006    0.99387003    0.09173996    -0.21750000
opls_145-210    C    0.39772000    0.96728000    0.19965000    -0.06080000
opls_145-211    C    0.40013011    0.99347993    0.21712004    -0.22300000
opls_145-212    C    0.42244998    0.01475003    0.21021989    -0.06180000
opls_145-213    C    0.44188990    0.01007998    0.18590006    -0.05900000
opls_145-214    C    0.43925010    0.98402999    0.16820011    -0.19740000
opls_145-215    C    0.41706011    0.96265005    0.17521989    -0.05900000
opls_700-216    C    0.02355010    0.56664996    0.96781001    0.03880000
opls_700-217    C    0.01522992    0.54981999    0.94173996    0.04180000
opls_166-218    C    0.99739005    0.51545003    0.89165998    0.17490000
opls_166-219    C    0.98222007    0.54118010    0.89872989    0.17490000
opls_145-220    C    0.99041995    0.55863009    0.92328009    -0.21750000
opls_145-221    C    0.02213006    0.50612997    0.90826004    -0.21750000
opls_145-222    C    0.89772000    0.53272000    0.80035000    -0.06080000
opls_145-223    C    0.90013011    0.50652007    0.78287996    -0.22300000
opls_145-224    C    0.92244998    0.48524997    0.78978011    -0.06180000
opls_145-225    C    0.94188990    0.48992002    0.81409994    -0.05900000
opls_145-226    C    0.93925010    0.51597001    0.83179989    -0.19740000
opls_145-227    C    0.91706011    0.53734995    0.82478011    -0.05900000
opls_700-228    C    0.97644990    0.06664996    0.53218999    0.03880000
opls_700-229    C    0.98477008    0.04981999    0.55826004    0.04180000
opls_166-230    C    0.00260995    0.01545003    0.60834002    0.17490000
opls_166-231    C    0.01777993    0.04118010    0.60127011    0.17490000
opls_145-232    C    0.00958005    0.05863009    0.57671991    -0.21750000
opls_145-233    C    0.97786994    0.00612997    0.59173996    -0.21750000
opls_145-234    C    0.10228000    0.03272000    0.69965000    -0.06080000
opls_145-235    C    0.09986989    0.00652007    0.71712004    -0.22300000
opls_145-236    C    0.07755002    0.98524997    0.71021989    -0.06180000
opls_145-237    C    0.05811010    0.98992002    0.68590006    -0.05900000
opls_145-238    C    0.06074990    0.01597001    0.66820011    -0.19740000
opls_145-239    C    0.08293989    0.03734995    0.67521989    -0.05900000
opls_700-240    C    0.56664996    0.96781001    0.02355010    0.03880000
opls_700-241    C    0.54981999    0.94173996    0.01522992    0.04180000
opls_166-242    C    0.51545003    0.89165998    0.99739005    0.17490000
opls_166-243    C    0.54118010    0.89872989    0.98222007    0.17490000
opls_145-244    C    0.55863009    0.92328009    0.99041995    -0.21750000
opls_145-245    C    0.50612997    0.90826004    0.02213006    -0.21750000
opls_145-246    C    0.53272000    0.80035000    0.89772000    -0.06080000
opls_145-247    C    0.50652007    0.78287996    0.90013011    -0.22300000
opls_145-248    C    0.48524997    0.78978011    0.92244998    -0.06180000
opls_145-249    C    0.48992002    0.81409994    0.94188990    -0.05900000
opls_145-250    C    0.51597001    0.83179989    0.93925010    -0.19740000
opls_145-251    C    0.53734995    0.82478011    0.91706011    -0.05900000
opls_700-252    C    0.06664996    0.53218999    0.97644990    0.03880000
opls_700-253    C    0.04981999    0.55826004    0.98477008    0.04180000
opls_166-254    C    0.01545003    0.60834002    0.00260995    0.17490000
opls_166-255    C    0.04118010    0.60127011    0.01777993    0.17490000
opls_145-256    C    0.05863009    0.57671991    0.00958005    -0.21750000
opls_145-257    C    0.00612997    0.59173996    0.97786994    -0.21750000
opls_145-258    C    0.03272000    0.69965000    0.10228000    -0.06080000
opls_145-259    C    0.00652007    0.71712004    0.09986989    -0.22300000
opls_145-260    C    0.98524997    0.71021989    0.07755002    -0.06180000
opls_145-261    C    0.98992002    0.68590006    0.05811010    -0.05900000
opls_145-262    C    0.01597001    0.66820011    0.06074990    -0.19740000
opls_145-263    C    0.03734995    0.67521989    0.08293989    -0.05900000
opls_700-264    C    0.43335004    0.46781001    0.47644990    0.03880000
opls_700-265    C    0.45018001    0.44173996    0.48477008    0.04180000
opls_166-266    C    0.48454997    0.39165998    0.50260995    0.17490000
opls_166-267    C    0.45881990    0.39872989    0.51777993    0.17490000
opls_145-268    C    0.44136991    0.42328009    0.50958005    -0.21750000
opls_145-269    C    0.49387003    0.40826004    0.47786994    -0.21750000
opls_145-270    C    0.46728000    0.30035000    0.60228000    -0.06080000
opls_145-271    C    0.49347993    0.28287996    0.59986989    -0.22300000
opls_145-272    C    0.51475003    0.28978011    0.57755002    -0.06180000
opls_145-273    C    0.51007998    0.31409994    0.55811010    -0.05900000
opls_145-274    C    0.48402999    0.33179989    0.56074990    -0.19740000
opls_145-275    C    0.46265005    0.32478011    0.58293989    -0.05900000
opls_700-276    C    0.93335004    0.03218999    0.52355010    0.03880000
opls_700-277    C    0.95018001    0.05826004    0.51522992    0.04180000
opls_166-278    C    0.98454997    0.10834002    0.49739005    0.17490000
opls_166-279    C    0.95881990    0.10127011    0.48222007    0.17490000
opls_145-280    C    0.94136991    0.07671991    0.49041995    -0.21740000
opls_145-281    C    0.99387003    0.09173996    0.52213006    -0.21750000
opls_145-282    C    0.96728000    0.19965000    0.39772000    -0.06080000
opls_145-283    C    0.99347993    0.21712004    0.40013011    -0.22300000
opls_145-284    C    0.01475003    0.21021989    0.42244998    -0.06180000
opls_145-285    C    0.01007998    0.18590006    0.44188990    -0.05900000
opls_145-286    C    0.98402999    0.16820011    0.43925010    -0.19740000
opls_145-287    C    0.96265005    0.17521989    0.41706011    -0.05900000
opls_700-288    C    0.77355010    0.28218999    0.18335004    0.03880000
opls_700-289    C    0.76522992    0.30826004    0.20018001    0.04180000
opls_166-290    C    0.74739005    0.35834002    0.23454997    0.17490000
opls_166-291    C    0.73222007    0.35127011    0.20881990    0.17490000
opls_145-292    C    0.74041995    0.32671991    0.19136991    -0.21750000
opls_145-293    C    0.77213006    0.34173996    0.24387003    -0.21750000
opls_145-294    C    0.64772000    0.44965000    0.21728000    -0.06080000
opls_145-295    C    0.65013011    0.46712004    0.24347993    -0.22300000
opls_145-296    C    0.67244998    0.46021989    0.26475003    -0.06180000
opls_145-297    C    0.69188990    0.43590006    0.26007998    -0.05900000
opls_145-298    C    0.68925010    0.41820011    0.23402999    -0.19740000
opls_145-299    C    0.66706011    0.42521989    0.21265005    -0.05900000
opls_700-300    C    0.72644990    0.71781001    0.68335004    0.03880000
opls_700-301    C    0.73477008    0.69173996    0.70018001    0.04180000
opls_166-302    C    0.75260995    0.64165998    0.73454997    0.17490000
opls_166-303    C    0.76777993    0.64872989    0.70881990    0.17490000
opls_145-304    C    0.75958005    0.67328009    0.69136991    -0.21750000
opls_145-305    C    0.72786994    0.65826004    0.74387003    -0.21750000
opls_145-306    C    0.85228000    0.55035000    0.71728000    -0.06080000
opls_145-307    C    0.84986989    0.53287996    0.74347993    -0.22300000
opls_145-308    C    0.82755002    0.53978011    0.76475003    -0.06180000
opls_145-309    C    0.80811010    0.56409994    0.76007998    -0.05900000
opls_145-310    C    0.81074990    0.58179989    0.73402999    -0.19740000
opls_145-311    C    0.83293989    0.57478011    0.71265005    -0.05900000
opls_700-312    C    0.22644990    0.78218999    0.31664996    0.03880000
opls_700-313    C    0.23477008    0.80826004    0.29981999    0.04180000
opls_166-314    C    0.25260995    0.85834002    0.26545003    0.17490000
opls_166-315    C    0.26777993    0.85127011    0.29118010    0.17490000
opls_145-316    C    0.25958005    0.82671991    0.30863009    -0.21750000
opls_145-317    C    0.22786994    0.84173996    0.25612997    -0.21750000
opls_145-318    C    0.35228000    0.94965000    0.28272000    -0.06080000
opls_145-319    C    0.34986989    0.96712004    0.25652007    -0.22300000
opls_145-320    C    0.32755002    0.96021989    0.23524997    -0.06180000
opls_145-321    C    0.30811010    0.93590006    0.23992002    -0.05900000
opls_145-322    C    0.31074990    0.91820011    0.26597001    -0.19740000
opls_145-323    C    0.33293989    0.92521989    0.28734995    -0.05900000
opls_700-324    C    0.27355010    0.21781001    0.81664996    0.03880000
opls_700-325    C    0.26522992    0.19173996    0.79981999    0.04180000
opls_166-326    C    0.24739005    0.14165998    0.76545003    0.17490000
opls_166-327    C    0.23222007    0.14872989    0.79118010    0.17490000
opls_145-328    C    0.24041995    0.17328009    0.80863009    -0.21750000
opls_145-329    C    0.27213006    0.15826004    0.75612997    -0.21750000
opls_145-330    C    0.14772000    0.05035000    0.78272000    -0.06080000
opls_145-331    C    0.15013011    0.03287996    0.75652007    -0.22300000
opls_145-332    C    0.17244998    0.03978011    0.73524997    -0.06180000
opls_145-333    C    0.19188990    0.06409994    0.73992002    -0.05900000
opls_145-334    C    0.18925010    0.08179989    0.76597001    -0.19740000
opls_145-335    C    0.16706011    0.07478011    0.78734995    -0.05900000
opls_700-336    C    0.81664996    0.27355010    0.21781001    0.03880000
opls_700-337    C    0.79981999    0.26522992    0.19173996    0.04180000
opls_166-338    C    0.76545003    0.24739005    0.14165998    0.17490000
opls_166-339    C    0.79118010    0.23222007    0.14872989    0.17490000
opls_145-340    C    0.80863009    0.24041995    0.17328009    -0.21750000
opls_145-341    C    0.75612997    0.27213006    0.15826004    -0.21750000
opls_145-342    C    0.78272000    0.14772000    0.05035000    -0.06080000
opls_145-343    C    0.75652007    0.15013011    0.03287996    -0.22300000
opls_145-344    C    0.73524997    0.17244998    0.03978011    -0.06180000
opls_145-345    C    0.73992002    0.19188990    0.06409994    -0.05900000
opls_145-346    C    0.76597001    0.18925010    0.08179989    -0.19740000
opls_145-347    C    0.78734995    0.16706011    0.07478011    -0.05900000
opls_700-348    C    0.31664996    0.22644990    0.78218999    0.03880000
opls_700-349    C    0.29981999    0.23477008    0.80826004    0.04180000
opls_166-350    C    0.26545003    0.25260995    0.85834002    0.17490000
opls_166-351    C    0.29118010    0.26777993    0.85127011    0.17490000
opls_145-352    C    0.30863009    0.25958005    0.82671991    -0.21740000
opls_145-353    C    0.25612997    0.22786994    0.84173996    -0.21750000
opls_145-354    C    0.28272000    0.35228000    0.94965000    -0.06080000
opls_145-355    C    0.25652007    0.34986989    0.96712004    -0.22300000
opls_145-356    C    0.23524997    0.32755002    0.96021989    -0.06180000
opls_145-357    C    0.23992002    0.30811010    0.93590006    -0.05900000
opls_145-358    C    0.26597001    0.31074990    0.91820011    -0.19740000
opls_145-359    C    0.28734995    0.33293989    0.92521989    -0.05900000
opls_700-360    C    0.68335004    0.72644990    0.71781001    0.03880000
opls_700-361    C    0.70018001    0.73477008    0.69173996    0.04180000
opls_166-362    C    0.73454997    0.75260995    0.64165998    0.17490000
opls_166-363    C    0.70881990    0.76777993    0.64872989    0.17490000
opls_145-364    C    0.69136991    0.75958005    0.67328009    -0.21750000
opls_145-365    C    0.74387003    0.72786994    0.65826004    -0.21750000
opls_145-366    C    0.71728000    0.85228000    0.55035000    -0.06080000
opls_145-367    C    0.74347993    0.84986989    0.53287996    -0.22300000
opls_145-368    C    0.76475003    0.82755002    0.53978011    -0.06180000
opls_145-369    C    0.76007998    0.80811010    0.56409994    -0.05900000
opls_145-370    C    0.73402999    0.81074990    0.58179989    -0.19740000
opls_145-371    C    0.71265005    0.83293989    0.57478011    -0.05900000
opls_700-372    C    0.18335004    0.77355010    0.28218999    0.03880000
opls_700-373    C    0.20018001    0.76522992    0.30826004    0.04180000
opls_166-374    C    0.23454997    0.74739005    0.35834002    0.17490000
opls_166-375    C    0.20881990    0.73222007    0.35127011    0.17490000
opls_145-376    C    0.19136991    0.74041995    0.32671991    -0.21750000
opls_145-377    C    0.24387003    0.77213006    0.34173996    -0.21750000
opls_145-378    C    0.21728000    0.64772000    0.44965000    -0.06080000
opls_145-379    C    0.24347993    0.65013011    0.46712004    -0.22300000
opls_145-380    C    0.26475003    0.67244998    0.46021989    -0.06180000
opls_145-381    C    0.26007998    0.69188990    0.43590006    -0.05900000
opls_145-382    C    0.23402999    0.68925010    0.41820011    -0.19740000
opls_145-383    C    0.21265005    0.66706011    0.42521989    -0.05900000
opls_700-384    C    0.28218999    0.18335004    0.77355010    0.03880000
opls_700-385    C    0.30826004    0.20018001    0.76522992    0.04180000
opls_166-386    C    0.35834002    0.23454997    0.74739005    0.17490000
opls_166-387    C    0.35127011    0.20881990    0.73222007    0.17490000
opls_145-388    C    0.32671991    0.19136991    0.74041995    -0.21750000
opls_145-389    C    0.34173996    0.24387003    0.77213006    -0.21750000
opls_145-390    C    0.44965000    0.21728000    0.64772000    -0.06080000
opls_145-391    C    0.46712004    0.24347993    0.65013011    -0.22300000
opls_145-392    C    0.46021989    0.26475003    0.67244998    -0.06180000
opls_145-393    C    0.43590006    0.26007998    0.69188990    -0.05900000
opls_145-394    C    0.41820011    0.23402999    0.68925010    -0.19740000
opls_145-395    C    0.42521989    0.21265005    0.66706011    -0.05900000
opls_700-396    C    0.71781001    0.68335004    0.72644990    0.03880000
opls_700-397    C    0.69173996    0.70018001    0.73477008    0.04180000
opls_166-398    C    0.64165998    0.73454997    0.75260995    0.17490000
opls_166-399    C    0.64872989    0.70881990    0.76777993    0.17490000
opls_145-400    C    0.67328009    0.69136991    0.75958005    -0.21750000
opls_145-401    C    0.65826004    0.74387003    0.72786994    -0.21750000
opls_145-402    C    0.55035000    0.71728000    0.85228000    -0.06080000
opls_145-403    C    0.53287996    0.74347993    0.84986989    -0.22300000
opls_145-404    C    0.53978011    0.76475003    0.82755002    -0.06180000
opls_145-405    C    0.56409994    0.76007998    0.80811010    -0.05900000
opls_145-406    C    0.58179989    0.73402999    0.81074990    -0.19740000
opls_145-407    C    0.57478011    0.71265005    0.83293989    -0.05900000
opls_700-408    C    0.78218999    0.31664996    0.22644990    0.03880000
opls_700-409    C    0.80826004    0.29981999    0.23477008    0.04180000
opls_166-410    C    0.85834002    0.26545003    0.25260995    0.17490000
opls_166-411    C    0.85127011    0.29118010    0.26777993    0.17490000
opls_145-412    C    0.82671991    0.30863009    0.25958005    -0.21750000
opls_145-413    C    0.84173996    0.25612997    0.22786994    -0.21750000
opls_145-414    C    0.94965000    0.28272000    0.35228000    -0.06080000
opls_145-415    C    0.96712004    0.25652007    0.34986989    -0.22300000
opls_145-416    C    0.96021989    0.23524997    0.32755002    -0.06180000
opls_145-417    C    0.93590006    0.23992002    0.30811010    -0.05900000
opls_145-418    C    0.91820011    0.26597001    0.31074990    -0.19740000
opls_145-419    C    0.92521989    0.28734995    0.33293989    -0.05900000
opls_700-420    C    0.21781001    0.81664996    0.27355010    0.03880000
opls_700-421    C    0.19173996    0.79981999    0.26522992    0.04180000
opls_166-422    C    0.14165998    0.76545003    0.24739005    0.17490000
opls_166-423    C    0.14872989    0.79118010    0.23222007    0.17490000
opls_145-424    C    0.17328009    0.80863009    0.24041995    -0.21750000
opls_145-425    C    0.15826004    0.75612997    0.27213006    -0.21750000
opls_145-426    C    0.05035000    0.78272000    0.14772000    -0.06080000
opls_145-427    C    0.03287996    0.75652007    0.15013011    -0.22300000
opls_145-428    C    0.03978011    0.73524997    0.17244998    -0.06180000
opls_145-429    C    0.06409994    0.73992002    0.19188990    -0.05900000
opls_145-430    C    0.08179989    0.76597001    0.18925010    -0.19740000
opls_145-431    C    0.07478011    0.78734995    0.16706011    -0.05900000
opls_700-432    C    0.03218999    0.47644990    0.56664996    0.03880000
opls_700-433    C    0.05826004    0.48477008    0.54981999    0.04180000
opls_166-434    C    0.10834002    0.50260995    0.51545003    0.17490000
opls_166-435    C    0.10127011    0.51777993    0.54118010    0.17490000
opls_145-436    C    0.07671991    0.50958005    0.55863009    -0.21750000
opls_145-437    C    0.09173996    0.47786994    0.50612997    -0.21750000
opls_145-438    C    0.19965000    0.60228000    0.53272000    -0.06080000
opls_145-439    C    0.21712004    0.59986989    0.50652007    -0.22300000
opls_145-440    C    0.21021989    0.57755002    0.48524997    -0.06180000
opls_145-441    C    0.18590006    0.55811010    0.48992002    -0.05900000
opls_145-442    C    0.16820011    0.56074990    0.51597001    -0.19740000
opls_145-443    C    0.17521989    0.58293989    0.53734995    -0.05900000
opls_700-444    C    0.46781001    0.52355010    0.06664996    0.03880000
opls_700-445    C    0.44173996    0.51522992    0.04981999    0.04180000
opls_166-446    C    0.39165998    0.49739005    0.01545003    0.17490000
opls_166-447    C    0.39872989    0.48222007    0.04118010    0.17490000
opls_145-448    C    0.42328009    0.49041995    0.05863009    -0.21750000
opls_145-449    C    0.40826004    0.52213006    0.00612997    -0.21750000
opls_145-450    C    0.30035000    0.39772000    0.03272000    -0.06080000
opls_145-451    C    0.28287996    0.40013011    0.00652007    -0.22300000
opls_145-452    C    0.28978011    0.42244998    0.98524997    -0.06180000
opls_145-453    C    0.31409994    0.44188990    0.98992002    -0.05900000
opls_145-454    C    0.33179989    0.43925010    0.01597001    -0.19740000
opls_145-455    C    0.32478011    0.41706011    0.03734995    -0.05900000
opls_700-456    C    0.53218999    0.02355010    0.43335004    0.03880000
opls_700-457    C    0.55826004    0.01522992    0.45018001    0.04180000
opls_166-458    C    0.60834002    0.99739005    0.48454997    0.17490000
opls_166-459    C    0.60127011    0.98222007    0.45881990    0.17490000
opls_145-460    C    0.57671991    0.99041995    0.44136991    -0.21750000
opls_145-461    C    0.59173996    0.02213006    0.49387003    -0.21750000
opls_145-462    C    0.69965000    0.89772000    0.46728000    -0.06080000
opls_145-463    C    0.71712004    0.90013011    0.49347993    -0.22300000
opls_145-464    C    0.71021989    0.92244998    0.51475003    -0.06180000
opls_145-465    C    0.68590006    0.94188990    0.51007998    -0.05900000
opls_145-466    C    0.66820011    0.93925010    0.48402999    -0.19740000
opls_145-467    C    0.67521989    0.91706011    0.46265005    -0.05900000
opls_700-468    C    0.96781001    0.97644990    0.93335004    0.03880000
opls_700-469    C    0.94173996    0.98477008    0.95018001    0.04180000
opls_166-470    C    0.89165998    0.00260995    0.98454997    0.17490000
opls_166-471    C    0.89872989    0.01777993    0.95881990    0.17490000
opls_145-472    C    0.92328009    0.00958005    0.94136991    -0.21750000
opls_145-473    C    0.90826004    0.97786994    0.99387003    -0.21750000
opls_145-474    C    0.80035000    0.10228000    0.96728000    -0.06080000
opls_145-475    C    0.78287996    0.09986989    0.99347993    -0.22300000
opls_145-476    C    0.78978011    0.07755002    0.01475003    -0.06180000
opls_145-477    C    0.81409994    0.05811010    0.01007998    -0.05890000
opls_145-478    C    0.83179989    0.06074990    0.98402999    -0.19740000
opls_145-479    C    0.82478011    0.08293989    0.96265005    -0.05900000
opls_700-480    C    0.02355010    0.43335004    0.53218999    0.03880000
opls_700-481    C    0.01522992    0.45018001    0.55826004    0.04180000
opls_166-482    C    0.99739005    0.48454997    0.60834002    0.17490000
opls_166-483    C    0.98222007    0.45881990    0.60127011    0.17490000
opls_145-484    C    0.99041995    0.44136991    0.57671991    -0.21750000
opls_145-485    C    0.02213006    0.49387003    0.59173996    -0.21750000
opls_145-486    C    0.89772000    0.46728000    0.69965000    -0.06080000
opls_145-487    C    0.90013011    0.49347993    0.71712004    -0.22300000
opls_145-488    C    0.92244998    0.51475003    0.71021989    -0.06180000
opls_145-489    C    0.94188990    0.51007998    0.68590006    -0.05900000
opls_145-490    C    0.93925010    0.48402999    0.66820011    -0.19740000
opls_145-491    C    0.91706011    0.46265005    0.67521989    -0.05900000
opls_700-492    C    0.97644990    0.93335004    0.96781001    0.03880000
opls_700-493    C    0.98477008    0.95018001    0.94173996    0.04180000
opls_166-494    C    0.00260995    0.98454997    0.89165998    0.17490000
opls_166-495    C    0.01777993    0.95881990    0.89872989    0.17490000
opls_145-496    C    0.00958005    0.94136991    0.92328009    -0.21750000
opls_145-497    C    0.97786994    0.99387003    0.90826004    -0.21750000
opls_145-498    C    0.10228000    0.96728000    0.80035000    -0.06080000
opls_145-499    C    0.09986989    0.99347993    0.78287996    -0.22300000
opls_145-500    C    0.07755002    0.01475003    0.78978011    -0.06180000
opls_145-501    C    0.05811010    0.01007998    0.81409994    -0.05900000
opls_145-502    C    0.06074990    0.98402999    0.83179989    -0.19740000
opls_145-503    C    0.08293989    0.96265005    0.82478011    -0.05900000
opls_700-504    C    0.47644990    0.56664996    0.03218999    0.03880000
opls_700-505    C    0.48477008    0.54981999    0.05826004    0.04180000
opls_166-506    C    0.50260995    0.51545003    0.10834002    0.17490000
opls_166-507    C    0.51777993    0.54118010    0.10127011    0.17490000
opls_145-508    C    0.50958005    0.55863009    0.07671991    -0.21750000
opls_145-509    C    0.47786994    0.50612997    0.09173996    -0.21740000
opls_145-510    C    0.60228000    0.53272000    0.19965000    -0.06080000
opls_145-511    C    0.59986989    0.50652007    0.21712004    -0.22300000
opls_145-512    C    0.57755002    0.48524997    0.21021989    -0.06180000
opls_145-513    C    0.55811010    0.48992002    0.18590006    -0.05900000
opls_145-514    C    0.56074990    0.51597001    0.16820011    -0.19740000
opls_145-515    C    0.58293989    0.53734995    0.17521989    -0.05900000
opls_700-516    C    0.52355010    0.06664996    0.46781001    0.03880000
opls_700-517    C    0.51522992    0.04981999    0.44173996    0.04180000
opls_166-518    C    0.49739005    0.01545003    0.39165998    0.17490000
opls_166-519    C    0.48222007    0.04118010    0.39872989    0.17490000
opls_145-520    C    0.49041995    0.05863009    0.42328009    -0.21750000
opls_145-521    C    0.52213006    0.00612997    0.40826004    -0.21750000
opls_145-522    C    0.39772000    0.03272000    0.30035000    -0.06080000
opls_145-523    C    0.40013011    0.00652007    0.28287996    -0.22300000
opls_145-524    C    0.42244998    0.98524997    0.28978011    -0.06180000
opls_145-525    C    0.44188990    0.98992002    0.31409994    -0.05900000
opls_145-526    C    0.43925010    0.01597001    0.33179989    -0.19740000
opls_145-527    C    0.41706011    0.03734995    0.32478011    -0.05900000
opls_700-528    C    0.93335004    0.96781001    0.97644990    0.03880000
opls_700-529    C    0.95018001    0.94173996    0.98477008    0.04180000
opls_166-530    C    0.98454997    0.89165998    0.00260995    0.17490000
opls_166-531    C    0.95881990    0.89872989    0.01777993    0.17490000
opls_145-532    C    0.94136991    0.92328009    0.00958005    -0.21750000
opls_145-533    C    0.99387003    0.90826004    0.97786994    -0.21750000
opls_145-534    C    0.96728000    0.80035000    0.10228000    -0.06080000
opls_145-535    C    0.99347993    0.78287996    0.09986989    -0.22300000
opls_145-536    C    0.01475003    0.78978011    0.07755002    -0.06180000
opls_145-537    C    0.01007998    0.81409994    0.05811010    -0.05900000
opls_145-538    C    0.98402999    0.83179989    0.06074990    -0.19740000
opls_145-539    C    0.96265005    0.82478011    0.08293989    -0.05900000
opls_700-540    C    0.43335004    0.53218999    0.02355010    0.03880000
opls_700-541    C    0.45018001    0.55826004    0.01522992    0.04180000
opls_166-542    C    0.48454997    0.60834002    0.99739005    0.17490000
opls_166-543    C    0.45881990    0.60127011    0.98222007    0.17490000
opls_145-544    C    0.44136991    0.57671991    0.99041995    -0.21750000
opls_145-545    C    0.49387003    0.59173996    0.02213006    -0.21750000
opls_145-546    C    0.46728000    0.69965000    0.89772000    -0.06080000
opls_145-547    C    0.49347993    0.71712004    0.90013011    -0.22300000
opls_145-548    C    0.51475003    0.71021989    0.92244998    -0.06180000
opls_145-549    C    0.51007998    0.68590006    0.94188990    -0.05900000
opls_145-550    C    0.48402999    0.66820011    0.93925010    -0.19730000
opls_145-551    C    0.46265005    0.67521989    0.91706011    -0.05900000
opls_700-552    C    0.06664996    0.46781001    0.52355010    0.03880000
opls_700-553    C    0.04981999    0.44173996    0.51522992    0.04180000
opls_166-554    C    0.01545003    0.39165998    0.49739005    0.17490000
opls_166-555    C    0.04118010    0.39872989    0.48222007    0.17490000
opls_145-556    C    0.05863009    0.42328009    0.49041995    -0.21750000
opls_145-557    C    0.00612997    0.40826004    0.52213006    -0.21750000
opls_145-558    C    0.03272000    0.30035000    0.39772000    -0.06080000
opls_145-559    C    0.00652007    0.28287996    0.40013011    -0.22300000
opls_145-560    C    0.98524997    0.28978011    0.42244998    -0.06180000
opls_145-561    C    0.98992002    0.31409994    0.44188990    -0.05900000
opls_145-562    C    0.01597001    0.33179989    0.43925010    -0.19730000
opls_145-563    C    0.03734995    0.32478011    0.41706011    -0.05900000
opls_700-564    C    0.56664996    0.03218999    0.47644990    0.03880000
opls_700-565    C    0.54981999    0.05826004    0.48477008    0.04180000
opls_166-566    C    0.51545003    0.10834002    0.50260995    0.17490000
opls_166-567    C    0.54118010    0.10127011    0.51777993    0.17490000
opls_145-568    C    0.55863009    0.07671991    0.50958005    -0.21750000
opls_145-569    C    0.50612997    0.09173996    0.47786994    -0.21750000
opls_145-570    C    0.53272000    0.19965000    0.60228000    -0.06080000
opls_145-571    C    0.50652007    0.21712004    0.59986989    -0.22300000
opls_145-572    C    0.48524997    0.21021989    0.57755002    -0.06180000
opls_145-573    C    0.48992002    0.18590006    0.55811010    -0.05900000
opls_145-574    C    0.51597001    0.16820011    0.56074990    -0.19740000
opls_145-575    C    0.53734995    0.17521989    0.58293989    -0.05900000
opls_146-576    H    0.27269995    0.17679989    0.17129996    0.11670000
opls_146-577    H    0.21763000    0.15114000    0.26463998    0.11740000
opls_146-578    H    0.36893998    0.04521989    0.20028004    0.10820000
opls_146-579    H    0.33529007    0.08802990    0.19228000    0.07210000
opls_146-580    H    0.32518001    0.02632001    0.28496992    0.06110000
opls_146-581    H    0.29108007    0.06904001    0.27686005    0.07210000
opls_146-582    H    0.22730005    0.82320011    0.67129996    0.11680000
opls_146-583    H    0.28237000    0.84886000    0.76463998    0.11750000
opls_146-584    H    0.13106002    0.95478011    0.70028004    0.10820000
opls_146-585    H    0.16470993    0.91197010    0.69228000    0.07210000
opls_146-586    H    0.17481999    0.97367999    0.78496992    0.06110000
opls_146-587    H    0.20891993    0.93095999    0.77686005    0.07210000
opls_146-588    H    0.72730005    0.67679989    0.32870004    0.11670000
opls_146-589    H    0.78237000    0.65114000    0.23536002    0.11740000
opls_146-590    H    0.63106002    0.54521989    0.29971996    0.10820000
opls_146-591    H    0.66470993    0.58802990    0.30772000    0.07210000
opls_146-592    H    0.67481999    0.52632001    0.21503008    0.06110000
opls_146-593    H    0.70891993    0.56904001    0.22313995    0.07210000
opls_146-594    H    0.77269995    0.32320011    0.82870004    0.11670000
opls_146-595    H    0.71763000    0.34886000    0.73536002    0.11740000
opls_146-596    H    0.86893998    0.45478011    0.79971996    0.10820000
opls_146-597    H    0.83529007    0.41197010    0.80772000    0.07210000
opls_146-598    H    0.82518001    0.47367999    0.71503008    0.06110000
opls_146-599    H    0.79108007    0.43095999    0.72313995    0.07210000
opls_146-600    H    0.17129996    0.27269995    0.17679989    0.11670000
opls_146-601    H    0.26463998    0.21763000    0.15114000    0.11740000
opls_146-602    H    0.20028004    0.36893998    0.04521989    0.10820000
opls_146-603    H    0.19228000    0.33529007    0.08802990    0.07210000
opls_146-604    H    0.28496992    0.32518001    0.02632001    0.06110000
opls_146-605    H    0.27686005    0.29108007    0.06904001    0.07210000
opls_146-606    H    0.67129996    0.22730005    0.82320011    0.11670000
opls_146-607    H    0.76463998    0.28237000    0.84886000    0.11740000
opls_146-608    H    0.70028004    0.13106002    0.95478011    0.10820000
opls_146-609    H    0.69228000    0.16470993    0.91197010    0.07210000
opls_146-610    H    0.78496992    0.17481999    0.97367999    0.06110000
opls_146-611    H    0.77686005    0.20891993    0.93095999    0.07210000
opls_146-612    H    0.32870004    0.72730005    0.67679989    0.11670000
opls_146-613    H    0.23536002    0.78237000    0.65114000    0.11740000
opls_146-614    H    0.29971996    0.63106002    0.54521989    0.10820000
opls_146-615    H    0.30772000    0.66470993    0.58802990    0.07210000
opls_146-616    H    0.21503008    0.67481999    0.52632001    0.06110000
opls_146-617    H    0.22313995    0.70891993    0.56904001    0.07220000
opls_146-618    H    0.82870004    0.77269995    0.32320011    0.11670000
opls_146-619    H    0.73536002    0.71763000    0.34886000    0.11740000
opls_146-620    H    0.79971996    0.86893998    0.45478011    0.10820000
opls_146-621    H    0.80772000    0.83529007    0.41197010    0.07210000
opls_146-622    H    0.71503008    0.82518001    0.47367999    0.06110000
opls_146-623    H    0.72313995    0.79108007    0.43095999    0.07210000
opls_146-624    H    0.67679989    0.32870004    0.72730005    0.11670000
opls_146-625    H    0.65114000    0.23536002    0.78237000    0.11740000
opls_146-626    H    0.54521989    0.29971996    0.63106002    0.10830000
opls_146-627    H    0.58802990    0.30772000    0.66470993    0.07210000
opls_146-628    H    0.52632001    0.21503008    0.67481999    0.06110000
opls_146-629    H    0.56904001    0.22313995    0.70891993    0.07210000
opls_146-630    H    0.32320011    0.82870004    0.77269995    0.11670000
opls_146-631    H    0.34886000    0.73536002    0.71763000    0.11740000
opls_146-632    H    0.45478011    0.79971996    0.86893998    0.10820000
opls_146-633    H    0.41197010    0.80772000    0.83529007    0.07210000
opls_146-634    H    0.47367999    0.71503008    0.82518001    0.06110000
opls_146-635    H    0.43095999    0.72313995    0.79108007    0.07210000
opls_146-636    H    0.17679989    0.17129996    0.27269995    0.11670000
opls_146-637    H    0.15114000    0.26463998    0.21763000    0.11740000
opls_146-638    H    0.04521989    0.20028004    0.36893998    0.10820000
opls_146-639    H    0.08802990    0.19228000    0.33529007    0.07210000
opls_146-640    H    0.02632001    0.28496992    0.32518001    0.06110000
opls_146-641    H    0.06904001    0.27686005    0.29108007    0.07210000
opls_146-642    H    0.82320011    0.67129996    0.22730005    0.11670000
opls_146-643    H    0.84886000    0.76463998    0.28237000    0.11740000
opls_146-644    H    0.95478011    0.70028004    0.13106002    0.10820000
opls_146-645    H    0.91197010    0.69228000    0.16470993    0.07210000
opls_146-646    H    0.97367999    0.78496992    0.17481999    0.06110000
opls_146-647    H    0.93095999    0.77686005    0.20891993    0.07210000
opls_146-648    H    0.42679989    0.52269995    0.42129996    0.11670000
opls_146-649    H    0.40114000    0.46763000    0.51463998    0.11740000
opls_146-650    H    0.29521989    0.61893998    0.45028004    0.10820000
opls_146-651    H    0.33802990    0.58529007    0.44228000    0.07210000
opls_146-652    H    0.27632001    0.57518001    0.53496992    0.06110000
opls_146-653    H    0.31904001    0.54108007    0.52686005    0.07210000
opls_146-654    H    0.07320011    0.47730005    0.92129996    0.11670000
opls_146-655    H    0.09886000    0.53237000    0.01463998    0.11740000
opls_146-656    H    0.20478011    0.38106002    0.95028004    0.10820000
opls_146-657    H    0.16197010    0.41470993    0.94228000    0.07210000
opls_146-658    H    0.22367999    0.42481999    0.03496992    0.06110000
opls_146-659    H    0.18095999    0.45891993    0.02686005    0.07210000
opls_146-660    H    0.92679989    0.97730005    0.57870004    0.11670000
opls_146-661    H    0.90114000    0.03237000    0.48536002    0.11740000
opls_146-662    H    0.79521989    0.88106002    0.54971996    0.10820000
opls_146-663    H    0.83802990    0.91470993    0.55772000    0.07210000
opls_146-664    H    0.77632001    0.92481999    0.46503008    0.06110000
opls_146-665    H    0.81904001    0.95891993    0.47313995    0.07210000
opls_146-666    H    0.57320011    0.02269995    0.07870004    0.11670000
opls_146-667    H    0.59886000    0.96763000    0.98536002    0.11740000
opls_146-668    H    0.70478011    0.11893998    0.04971996    0.10820000
opls_146-669    H    0.66197010    0.08529007    0.05772000    0.07210000
opls_146-670    H    0.72367999    0.07518001    0.96503008    0.06110000
opls_146-671    H    0.68095999    0.04108007    0.97313995    0.07210000
opls_146-672    H    0.52269995    0.42129996    0.42679989    0.11670000
opls_146-673    H    0.46763000    0.51463998    0.40114000    0.11740000
opls_146-674    H    0.61893998    0.45028004    0.29521989    0.10820000
opls_146-675    H    0.58529007    0.44228000    0.33802990    0.07210000
opls_146-676    H    0.57518001    0.53496992    0.27632001    0.06110000
opls_146-677    H    0.54108007    0.52686005    0.31904001    0.07210000
opls_146-678    H    0.47730005    0.92129996    0.07320011    0.11670000
opls_146-679    H    0.53237000    0.01463998    0.09886000    0.11740000
opls_146-680    H    0.38106002    0.95028004    0.20478011    0.10820000
opls_146-681    H    0.41470993    0.94228000    0.16197010    0.07210000
opls_146-682    H    0.42481999    0.03496992    0.22367999    0.06110000
opls_146-683    H    0.45891993    0.02686005    0.18095999    0.07210000
opls_146-684    H    0.97730005    0.57870004    0.92679989    0.11670000
opls_146-685    H    0.03237000    0.48536002    0.90114000    0.11740000
opls_146-686    H    0.88106002    0.54971996    0.79521989    0.10820000
opls_146-687    H    0.91470993    0.55772000    0.83802990    0.07210000
opls_146-688    H    0.92481999    0.46503008    0.77632001    0.06110000
opls_146-689    H    0.95891993    0.47313995    0.81904001    0.07210000
opls_146-690    H    0.02269995    0.07870004    0.57320011    0.11670000
opls_146-691    H    0.96763000    0.98536002    0.59886000    0.11740000
opls_146-692    H    0.11893998    0.04971996    0.70478011    0.10820000
opls_146-693    H    0.08529007    0.05772000    0.66197010    0.07210000
opls_146-694    H    0.07518001    0.96503008    0.72367999    0.06110000
opls_146-695    H    0.04108007    0.97313995    0.68095999    0.07210000
opls_146-696    H    0.57870004    0.92679989    0.97730005    0.11670000
opls_146-697    H    0.48536002    0.90114000    0.03237000    0.11740000
opls_146-698    H    0.54971996    0.79521989    0.88106002    0.10820000
opls_146-699    H    0.55772000    0.83802990    0.91470993    0.07210000
opls_146-700    H    0.46503008    0.77632001    0.92481999    0.06110000
opls_146-701    H    0.47313995    0.81904001    0.95891993    0.07210000
opls_146-702    H    0.07870004    0.57320011    0.02269995    0.11670000
opls_146-703    H    0.98536002    0.59886000    0.96763000    0.11740000
opls_146-704    H    0.04971996    0.70478011    0.11893998    0.10820000
opls_146-705    H    0.05772000    0.66197010    0.08529007    0.07210000
opls_146-706    H    0.96503008    0.72367999    0.07518001    0.06110000
opls_146-707    H    0.97313995    0.68095999    0.04108007    0.07210000
opls_146-708    H    0.42129996    0.42679989    0.52269995    0.11670000
opls_146-709    H    0.51463998    0.40114000    0.46763000    0.11740000
opls_146-710    H    0.45028004    0.29521989    0.61893998    0.10820000
opls_146-711    H    0.44228000    0.33802990    0.58529007    0.07210000
opls_146-712    H    0.53496992    0.27632001    0.57518001    0.06110000
opls_146-713    H    0.52686005    0.31904001    0.54108007    0.07210000
opls_146-714    H    0.92129996    0.07320011    0.47730005    0.11670000
opls_146-715    H    0.01463998    0.09886000    0.53237000    0.11740000
opls_146-716    H    0.95028004    0.20478011    0.38106002    0.10820000
opls_146-717    H    0.94228000    0.16197010    0.41470993    0.07210000
opls_146-718    H    0.03496992    0.22367999    0.42481999    0.06110000
opls_146-719    H    0.02686005    0.18095999    0.45891993    0.07210000
opls_146-720    H    0.72730005    0.32320011    0.17129996    0.11670000
opls_146-721    H    0.78237000    0.34886000    0.26463998    0.11740000
opls_146-722    H    0.63106002    0.45478011    0.20028004    0.10820000
opls_146-723    H    0.66470993    0.41197010    0.19228000    0.07210000
opls_146-724    H    0.67481999    0.47367999    0.28496992    0.06110000
opls_146-725    H    0.70891993    0.43095999    0.27686005    0.07210000
opls_146-726    H    0.77269995    0.67679989    0.67129996    0.11670000
opls_146-727    H    0.71763000    0.65114000    0.76463998    0.11740000
opls_146-728    H    0.86893998    0.54521989    0.70028004    0.10820000
opls_146-729    H    0.83529007    0.58802990    0.69228000    0.07210000
opls_146-730    H    0.82518001    0.52632001    0.78496992    0.06110000
opls_146-731    H    0.79108007    0.56904001    0.77686005    0.07210000
opls_146-732    H    0.27269995    0.82320011    0.32870004    0.11670000
opls_146-733    H    0.21763000    0.84886000    0.23536002    0.11740000
opls_146-734    H    0.36893998    0.95478011    0.29971996    0.10820000
opls_146-735    H    0.33529007    0.91197010    0.30772000    0.07210000
opls_146-736    H    0.32518001    0.97367999    0.21503008    0.06110000
opls_146-737    H    0.29108007    0.93095999    0.22313995    0.07210000
opls_146-738    H    0.22730005    0.17679989    0.82870004    0.11680000
opls_146-739    H    0.28237000    0.15114000    0.73536002    0.11740000
opls_146-740    H    0.13106002    0.04521989    0.79971996    0.10820000
opls_146-741    H    0.16470993    0.08802990    0.80772000    0.07210000
opls_146-742    H    0.17481999    0.02632001    0.71503008    0.06110000
opls_146-743    H    0.20891993    0.06904001    0.72313995    0.07210000
opls_146-744    H    0.82870004    0.22730005    0.17679989    0.11670000
opls_146-745    H    0.73536002    0.28237000    0.15114000    0.11740000
opls_146-746    H    0.79971996    0.13106002    0.04521989    0.10820000
opls_146-747    H    0.80772000    0.16470993    0.08802990    0.07210000
opls_146-748    H    0.71503008    0.17481999    0.02632001    0.06110000
opls_146-749    H    0.72313995    0.20891993    0.06904001    0.07210000
opls_146-750    H    0.32870004    0.27269995    0.82320011    0.11670000
opls_146-751    H    0.23536002    0.21763000    0.84886000    0.11750000
opls_146-752    H    0.29971996    0.36893998    0.95478011    0.10820000
opls_146-753    H    0.30772000    0.33529007    0.91197010    0.07210000
opls_146-754    H    0.21503008    0.32518001    0.97367999    0.06110000
opls_146-755    H    0.22313995    0.29108007    0.93095999    0.07210000
opls_146-756    H    0.67129996    0.77269995    0.67679989    0.11670000
opls_146-757    H    0.76463998    0.71763000    0.65114000    0.11740000
opls_146-758    H    0.70028004    0.86893998    0.54521989    0.10820000
opls_146-759    H    0.69228000    0.83529007    0.58802990    0.07210000
opls_146-760    H    0.78496992    0.82518001    0.52632001    0.06110000
opls_146-761    H    0.77686005    0.79108007    0.56904001    0.07210000
opls_146-762    H    0.17129996    0.72730005    0.32320011    0.11670000
opls_146-763    H    0.26463998    0.78237000    0.34886000    0.11740000
opls_146-764    H    0.20028004    0.63106002    0.45478011    0.10820000
opls_146-765    H    0.19228000    0.66470993    0.41197010    0.07210000
opls_146-766    H    0.28496992    0.67481999    0.47367999    0.06110000
opls_146-767    H    0.27686005    0.70891993    0.43095999    0.07210000
opls_146-768    H    0.32320011    0.17129996    0.72730005    0.11670000
opls_146-769    H    0.34886000    0.26463998    0.78237000    0.11740000
opls_146-770    H    0.45478011    0.20028004    0.63106002    0.10820000
opls_146-771    H    0.41197010    0.19228000    0.66470993    0.07210000
opls_146-772    H    0.47367999    0.28496992    0.67481999    0.06110000
opls_146-773    H    0.43095999    0.27686005    0.70891993    0.07210000
opls_146-774    H    0.67679989    0.67129996    0.77269995    0.11670000
opls_146-775    H    0.65114000    0.76463998    0.71763000    0.11740000
opls_146-776    H    0.54521989    0.70028004    0.86893998    0.10820000
opls_146-777    H    0.58802990    0.69228000    0.83529007    0.07210000
opls_146-778    H    0.52632001    0.78496992    0.82518001    0.06110000
opls_146-779    H    0.56904001    0.77686005    0.79108007    0.07210000
opls_146-780    H    0.82320011    0.32870004    0.27269995    0.11670000
opls_146-781    H    0.84886000    0.23536002    0.21763000    0.11750000
opls_146-782    H    0.95478011    0.29971996    0.36893998    0.10820000
opls_146-783    H    0.91197010    0.30772000    0.33529007    0.07210000
opls_146-784    H    0.97367999    0.21503008    0.32518001    0.06110000
opls_146-785    H    0.93095999    0.22313995    0.29108007    0.07210000
opls_146-786    H    0.17679989    0.82870004    0.22730005    0.11670000
opls_146-787    H    0.15114000    0.73536002    0.28237000    0.11740000
opls_146-788    H    0.04521989    0.79971996    0.13106002    0.10830000
opls_146-789    H    0.08802990    0.80772000    0.16470993    0.07210000
opls_146-790    H    0.02632001    0.71503008    0.17481999    0.06110000
opls_146-791    H    0.06904001    0.72313995    0.20891993    0.07210000
opls_146-792    H    0.07320011    0.52269995    0.57870004    0.11670000
opls_146-793    H    0.09886000    0.46763000    0.48536002    0.11740000
opls_146-794    H    0.20478011    0.61893998    0.54971996    0.10820000
opls_146-795    H    0.16197010    0.58529007    0.55772000    0.07210000
opls_146-796    H    0.22367999    0.57518001    0.46503008    0.06110000
opls_146-797    H    0.18095999    0.54108007    0.47313995    0.07210000
opls_146-798    H    0.42679989    0.47730005    0.07870004    0.11670000
opls_146-799    H    0.40114000    0.53237000    0.98536002    0.11740000
opls_146-800    H    0.29521989    0.38106002    0.04971996    0.10820000
opls_146-801    H    0.33802990    0.41470993    0.05772000    0.07210000
opls_146-802    H    0.27632001    0.42481999    0.96503008    0.06110000
opls_146-803    H    0.31904001    0.45891993    0.97313995    0.07210000
opls_146-804    H    0.57320011    0.97730005    0.42129996    0.11670000
opls_146-805    H    0.59886000    0.03237000    0.51463998    0.11740000
opls_146-806    H    0.70478011    0.88106002    0.45028004    0.10820000
opls_146-807    H    0.66197010    0.91470993    0.44228000    0.07210000
opls_146-808    H    0.72367999    0.92481999    0.53496992    0.06110000
opls_146-809    H    0.68095999    0.95891993    0.52686005    0.07210000
opls_146-810    H    0.92679989    0.02269995    0.92129996    0.11670000
opls_146-811    H    0.90114000    0.96763000    0.01463998    0.11740000
opls_146-812    H    0.79521989    0.11893998    0.95028004    0.10820000
opls_146-813    H    0.83802990    0.08529007    0.94228000    0.07210000
opls_146-814    H    0.77632001    0.07518001    0.03496992    0.06110000
opls_146-815    H    0.81904001    0.04108007    0.02686005    0.07210000
opls_146-816    H    0.97730005    0.42129996    0.57320011    0.11670000
opls_146-817    H    0.03237000    0.51463998    0.59886000    0.11740000
opls_146-818    H    0.88106002    0.45028004    0.70478011    0.10820000
opls_146-819    H    0.91470993    0.44228000    0.66197010    0.07210000
opls_146-820    H    0.92481999    0.53496992    0.72367999    0.06110000
opls_146-821    H    0.95891993    0.52686005    0.68095999    0.07210000
opls_146-822    H    0.02269995    0.92129996    0.92679989    0.11670000
opls_146-823    H    0.96763000    0.01463998    0.90114000    0.11740000
opls_146-824    H    0.11893998    0.95028004    0.79521989    0.10840000
opls_146-825    H    0.08529007    0.94228000    0.83802990    0.07210000
opls_146-826    H    0.07518001    0.03496992    0.77632001    0.06110000
opls_146-827    H    0.04108007    0.02686005    0.81904001    0.07210000
opls_146-828    H    0.52269995    0.57870004    0.07320011    0.11670000
opls_146-829    H    0.46763000    0.48536002    0.09886000    0.11740000
opls_146-830    H    0.61893998    0.54971996    0.20478011    0.10820000
opls_146-831    H    0.58529007    0.55772000    0.16197010    0.07210000
opls_146-832    H    0.57518001    0.46503008    0.22367999    0.06110000
opls_146-833    H    0.54108007    0.47313995    0.18095999    0.07210000
opls_146-834    H    0.47730005    0.07870004    0.42679989    0.11670000
opls_146-835    H    0.53237000    0.98536002    0.40114000    0.11740000
opls_146-836    H    0.38106002    0.04971996    0.29521989    0.10820000
opls_146-837    H    0.41470993    0.05772000    0.33802990    0.07210000
opls_146-838    H    0.42481999    0.96503008    0.27632001    0.06110000
opls_146-839    H    0.45891993    0.97313995    0.31904001    0.07210000
opls_146-840    H    0.92129996    0.92679989    0.02269995    0.11670000
opls_146-841    H    0.01463998    0.90114000    0.96763000    0.11740000
opls_146-842    H    0.95028004    0.79521989    0.11893998    0.10820000
opls_146-843    H    0.94228000    0.83802990    0.08529007    0.07210000
opls_146-844    H    0.03496992    0.77632001    0.07518001    0.06110000
opls_146-845    H    0.02686005    0.81904001    0.04108007    0.07210000
opls_146-846    H    0.42129996    0.57320011    0.97730005    0.11670000
opls_146-847    H    0.51463998    0.59886000    0.03237000    0.11740000
opls_146-848    H    0.45028004    0.70478011    0.88106002    0.10820000
opls_146-849    H    0.44228000    0.66197010    0.91470993    0.07210000
opls_146-850    H    0.53496992    0.72367999    0.92481999    0.06110000
opls_146-851    H    0.52686005    0.68095999    0.95891993    0.07210000
opls_146-852    H    0.07870004    0.42679989    0.47730005    0.11670000
opls_146-853    H    0.98536002    0.40114000    0.53237000    0.11740000
opls_146-854    H    0.04971996    0.29521989    0.38106002    0.10820000
opls_146-855    H    0.05772000    0.33802990    0.41470993    0.07210000
opls_146-856    H    0.96503008    0.27632001    0.42481999    0.06110000
opls_146-857    H    0.97313995    0.31904001    0.45891993    0.07210000
opls_146-858    H    0.57870004    0.07320011    0.52269995    0.11670000
opls_146-859    H    0.48536002    0.09886000    0.46763000    0.11740000
opls_146-860    H    0.54971996    0.20478011    0.61893998    0.10820000
opls_146-861    H    0.55772000    0.16197010    0.58529007    0.07210000
opls_146-862    H    0.46503008    0.22367999    0.57518001    0.06110000
opls_146-863    H    0.47313995    0.18095999    0.54108007    0.07210000
MOF2_B_2-864    B    0.28905004    0.10906006    0.22877000    0.60190000
MOF2_B_2-865    B    0.21094996    0.89093994    0.72877000    0.60190000
MOF2_B_2-866    B    0.71094996    0.60906006    0.27123000    0.60190000
MOF2_B_2-867    B    0.78905004    0.39093994    0.77123000    0.60200000
MOF2_B_2-868    B    0.22877000    0.28905004    0.10906006    0.60190000
MOF2_B_2-869    B    0.72877000    0.21094996    0.89093994    0.60190000
MOF2_B_2-870    B    0.27123000    0.71094996    0.60906006    0.60200000
MOF2_B_2-871    B    0.77123000    0.78905004    0.39093994    0.60210000
MOF2_B_2-872    B    0.60906006    0.27123000    0.71094996    0.60190000
MOF2_B_2-873    B    0.39093994    0.77123000    0.78905004    0.60190000
MOF2_B_2-874    B    0.10906006    0.22877000    0.28905004    0.60190000
MOF2_B_2-875    B    0.89093994    0.72877000    0.21094996    0.60190000
MOF2_B_2-876    B    0.35906006    0.53905004    0.47877000    0.60190000
MOF2_B_2-877    B    0.14093994    0.46094996    0.97877000    0.60190000
MOF2_B_2-878    B    0.85906006    0.96094996    0.52123000    0.60200000
MOF2_B_2-879    B    0.64093994    0.03905004    0.02123000    0.60200000
MOF2_B_2-880    B    0.53905004    0.47877000    0.35906006    0.60190000
MOF2_B_2-881    B    0.46094996    0.97877000    0.14093994    0.60190000
MOF2_B_2-882    B    0.96094996    0.52123000    0.85906006    0.60190000
MOF2_B_2-883    B    0.03905004    0.02123000    0.64093994    0.60190000
MOF2_B_2-884    B    0.52123000    0.85906006    0.96094996    0.60190000
MOF2_B_2-885    B    0.02123000    0.64093994    0.03905004    0.60200000
MOF2_B_2-886    B    0.47877000    0.35906006    0.53905004    0.60200000
MOF2_B_2-887    B    0.97877000    0.14093994    0.46094996    0.60190000
MOF2_B_2-888    B    0.71094996    0.39093994    0.22877000    0.60190000
MOF2_B_2-889    B    0.78905004    0.60906006    0.72877000    0.60200000
MOF2_B_2-890    B    0.28905004    0.89093994    0.27123000    0.60190000
MOF2_B_2-891    B    0.21094996    0.10906006    0.77123000    0.60190000
MOF2_B_2-892    B    0.77123000    0.21094996    0.10906006    0.60190000
MOF2_B_2-893    B    0.27123000    0.28905004    0.89093994    0.60190000
MOF2_B_2-894    B    0.72877000    0.78905004    0.60906006    0.60200000
MOF2_B_2-895    B    0.22877000    0.71094996    0.39093994    0.60190000
MOF2_B_2-896    B    0.39093994    0.22877000    0.71094996    0.60190000
MOF2_B_2-897    B    0.60906006    0.72877000    0.78905004    0.60190000
MOF2_B_2-898    B    0.89093994    0.27123000    0.28905004    0.60190000
MOF2_B_2-899    B    0.10906006    0.77123000    0.21094996    0.60200000
MOF2_B_2-900    B    0.14093994    0.53905004    0.52123000    0.60190000
MOF2_B_2-901    B    0.35906006    0.46094996    0.02123000    0.60190000
MOF2_B_2-902    B    0.64093994    0.96094996    0.47877000    0.60190000
MOF2_B_2-903    B    0.85906006    0.03905004    0.97877000    0.60190000
MOF2_B_2-904    B    0.96094996    0.47877000    0.64093994    0.60190000
MOF2_B_2-905    B    0.03905004    0.97877000    0.85906006    0.60190000
MOF2_B_2-906    B    0.53905004    0.52123000    0.14093994    0.60190000
MOF2_B_2-907    B    0.46094996    0.02123000    0.35906006    0.60190000
MOF2_B_2-908    B    0.97877000    0.85906006    0.03905004    0.60190000
MOF2_B_2-909    B    0.47877000    0.64093994    0.96094996    0.60190000
MOF2_B_2-910    B    0.02123000    0.35906006    0.46094996    0.60190000
MOF2_B_2-911    B    0.52123000    0.14093994    0.53905004    0.60190000
opls_167-912    O    0.26434011    0.11671991    0.24923005    -0.33200000
opls_167-913    O    0.29149000    0.12931003    0.20284008    -0.33200000
opls_167-914    O    0.23565989    0.88328009    0.74923005    -0.33200000
opls_167-915    O    0.20851000    0.87068997    0.70284008    -0.33200000
opls_167-916    O    0.73565989    0.61671991    0.25076995    -0.33200000
opls_167-917    O    0.70851000    0.62931003    0.29715992    -0.33200000
opls_167-918    O    0.76434011    0.38328009    0.75076995    -0.33200000
opls_167-919    O    0.79149000    0.37068997    0.79715992    -0.33190000
opls_167-920    O    0.24923005    0.26434011    0.11671991    -0.33200000
opls_167-921    O    0.20284008    0.29149000    0.12931003    -0.33190000
opls_167-922    O    0.74923005    0.23565989    0.88328009    -0.33190000
opls_167-923    O    0.70284008    0.20851000    0.87068997    -0.33200000
opls_167-924    O    0.25076995    0.73565989    0.61671991    -0.33200000
opls_167-925    O    0.29715992    0.70851000    0.62931003    -0.33200000
opls_167-926    O    0.75076995    0.76434011    0.38328009    -0.33200000
opls_167-927    O    0.79715992    0.79149000    0.37068997    -0.33200000
opls_167-928    O    0.61671991    0.25076995    0.73565989    -0.33190000
opls_167-929    O    0.62931003    0.29715992    0.70851000    -0.33200000
opls_167-930    O    0.38328009    0.75076995    0.76434011    -0.33200000
opls_167-931    O    0.37068997    0.79715992    0.79149000    -0.33190000
opls_167-932    O    0.11671991    0.24923005    0.26434011    -0.33200000
opls_167-933    O    0.12931003    0.20284008    0.29149000    -0.33200000
opls_167-934    O    0.88328009    0.74923005    0.23565989    -0.33200000
opls_167-935    O    0.87068997    0.70284008    0.20851000    -0.33200000
opls_167-936    O    0.36671991    0.51434011    0.49923005    -0.33200000
opls_167-937    O    0.37931003    0.54149000    0.45284008    -0.33200000
opls_167-938    O    0.13328009    0.48565989    0.99923005    -0.33200000
opls_167-939    O    0.12068997    0.45851000    0.95284008    -0.33200000
opls_167-940    O    0.86671991    0.98565989    0.50076995    -0.33200000
opls_167-941    O    0.87931003    0.95851000    0.54715992    -0.33200000
opls_167-942    O    0.63328009    0.01434011    0.00076995    -0.33200000
opls_167-943    O    0.62068997    0.04149000    0.04715992    -0.33200000
opls_167-944    O    0.51434011    0.49923005    0.36671991    -0.33200000
opls_167-945    O    0.54149000    0.45284008    0.37931003    -0.33200000
opls_167-946    O    0.48565989    0.99923005    0.13328009    -0.33200000
opls_167-947    O    0.45851000    0.95284008    0.12068997    -0.33200000
opls_167-948    O    0.98565989    0.50076995    0.86671991    -0.33190000
opls_167-949    O    0.95851000    0.54715992    0.87931003    -0.33200000
opls_167-950    O    0.01434011    0.00076995    0.63328009    -0.33200000
opls_167-951    O    0.04149000    0.04715992    0.62068997    -0.33200000
opls_167-952    O    0.50076995    0.86671991    0.98565989    -0.33200000
opls_167-953    O    0.54715992    0.87931003    0.95851000    -0.33200000
opls_167-954    O    0.00076995    0.63328009    0.01434011    -0.33200000
opls_167-955    O    0.04715992    0.62068997    0.04149000    -0.33200000
opls_167-956    O    0.49923005    0.36671991    0.51434011    -0.33200000
opls_167-957    O    0.45284008    0.37931003    0.54149000    -0.33200000
opls_167-958    O    0.99923005    0.13328009    0.48565989    -0.33200000
opls_167-959    O    0.95284008    0.12068997    0.45851000    -0.33200000
opls_167-960    O    0.73565989    0.38328009    0.24923005    -0.33200000
opls_167-961    O    0.70851000    0.37068997    0.20284008    -0.33200000
opls_167-962    O    0.76434011    0.61671991    0.74923005    -0.33200000
opls_167-963    O    0.79149000    0.62931003    0.70284008    -0.33200000
opls_167-964    O    0.26434011    0.88328009    0.25076995    -0.33200000
opls_167-965    O    0.29149000    0.87068997    0.29715992    -0.33200000
opls_167-966    O    0.23565989    0.11671991    0.75076995    -0.33200000
opls_167-967    O    0.20851000    0.12931003    0.79715992    -0.33190000
opls_167-968    O    0.75076995    0.23565989    0.11671991    -0.33200000
opls_167-969    O    0.79715992    0.20851000    0.12931003    -0.33200000
opls_167-970    O    0.25076995    0.26434011    0.88328009    -0.33200000
opls_167-971    O    0.29715992    0.29149000    0.87068997    -0.33200000
opls_167-972    O    0.74923005    0.76434011    0.61671991    -0.33200000
opls_167-973    O    0.70284008    0.79149000    0.62931003    -0.33200000
opls_167-974    O    0.24923005    0.73565989    0.38328009    -0.33200000
opls_167-975    O    0.20284008    0.70851000    0.37068997    -0.33200000
opls_167-976    O    0.38328009    0.24923005    0.73565989    -0.33200000
opls_167-977    O    0.37068997    0.20284008    0.70851000    -0.33200000
opls_167-978    O    0.61671991    0.74923005    0.76434011    -0.33190000
opls_167-979    O    0.62931003    0.70284008    0.79149000    -0.33200000
opls_167-980    O    0.88328009    0.25076995    0.26434011    -0.33200000
opls_167-981    O    0.87068997    0.29715992    0.29149000    -0.33200000
opls_167-982    O    0.11671991    0.75076995    0.23565989    -0.33200000
opls_167-983    O    0.12931003    0.79715992    0.20851000    -0.33200000
opls_167-984    O    0.13328009    0.51434011    0.50076995    -0.33200000
opls_167-985    O    0.12068997    0.54149000    0.54715992    -0.33200000
opls_167-986    O    0.36671991    0.48565989    0.00076995    -0.33200000
opls_167-987    O    0.37931003    0.45851000    0.04715992    -0.33200000
opls_167-988    O    0.63328009    0.98565989    0.49923005    -0.33200000
opls_167-989    O    0.62068997    0.95851000    0.45284008    -0.33200000
opls_167-990    O    0.86671991    0.01434011    0.99923005    -0.33200000
opls_167-991    O    0.87931003    0.04149000    0.95284008    -0.33200000
opls_167-992    O    0.98565989    0.49923005    0.63328009    -0.33200000
opls_167-993    O    0.95851000    0.45284008    0.62068997    -0.33200000
opls_167-994    O    0.01434011    0.99923005    0.86671991    -0.33200000
opls_167-995    O    0.04149000    0.95284008    0.87931003    -0.33200000
opls_167-996    O    0.51434011    0.50076995    0.13328009    -0.33190000
opls_167-997    O    0.54149000    0.54715992    0.12068997    -0.33200000
opls_167-998    O    0.48565989    0.00076995    0.36671991    -0.33200000
opls_167-999    O    0.45851000    0.04715992    0.37931003    -0.33200000
opls_167-1000    O    0.99923005    0.86671991    0.01434011    -0.33200000
opls_167-1001    O    0.95284008    0.87931003    0.04149000    -0.33200000
opls_167-1002    O    0.49923005    0.63328009    0.98565989    -0.33200000
opls_167-1003    O    0.45284008    0.62068997    0.95851000    -0.33200000
opls_167-1004    O    0.00076995    0.36671991    0.48565989    -0.33200000
opls_167-1005    O    0.04715992    0.37931003    0.45851000    -0.33180000
opls_167-1006    O    0.50076995    0.13328009    0.51434011    -0.33200000
opls_167-1007    O    0.54715992    0.12068997    0.54149000    -0.33200000
MOF2_Si3-1008    Si    0.37500000    0.00000000    0.25000000    0.72000000
MOF2_Si3-1009    Si    0.12500000    0.00000000    0.75000000    0.72000000
MOF2_Si3-1010    Si    0.62500000    0.50000000    0.25000000    0.72000000
MOF2_Si3-1011    Si    0.87500000    0.50000000    0.75000000    0.72010000
MOF2_Si3-1012    Si    0.25000000    0.37500000    0.00000000    0.72000000
MOF2_Si3-1013    Si    0.75000000    0.12500000    0.00000000    0.72000000
MOF2_Si3-1014    Si    0.25000000    0.62500000    0.50000000    0.72010000
MOF2_Si3-1015    Si    0.75000000    0.87500000    0.50000000    0.72000000
MOF2_Si3-1016    Si    0.50000000    0.25000000    0.62500000    0.72000000
MOF2_Si3-1017    Si    0.50000000    0.75000000    0.87500000    0.72000000
MOF2_Si3-1018    Si    0.00000000    0.25000000    0.37500000    0.72000000
MOF2_Si3-1019    Si    0.00000000    0.75000000    0.12500000    0.72000000
