#======================================================================
# Crystal Data Generated By AuToFF
#----------------------------------------------------------------------

data_AuToFF_phase_1

_cell_length_a                         35.7099
_cell_length_b                         9.7315
_cell_length_c                         50.7873
_cell_angle_alpha                      90.00
_cell_angle_beta                       90.00
_cell_angle_gamma                      90.00
_symmetry_space_group_name_H-M_alt     'P 1'
_symmetry_space_group_IT_number        1

loop_
_space_group_symop_operation_xyz
   'x, y, z'

loop_
   _atom_site_label
   _atom_site_type_symbol
   _atom_site_fract_x
   _atom_site_fract_y
   _atom_site_fract_z
   _atom_site_charge
opls_700-0    C    0.58543009    0.70489955    0.60477994    0.07420000
opls_594-1    C    0.53130000    0.66407954    0.56561995    0.16590000
opls_700-2    C    0.67226007    0.73119971    0.66427000    0.06460000
opls_700-3    C    0.61539013    0.71815958    0.62535004    0.07400000
opls_142-4    C    0.70243994    0.73029954    0.68414997    0.01610000
opls_145-5    C    0.72365002    0.75472024    0.72927996    0.22670000
opls_700-6    C    0.47950988    0.68112007    0.59151993    0.06190000
opls_590-7    C    0.45320009    0.69915018    0.61162003    -0.04770000
opls_592-8    C    0.40449987    0.69509017    0.57769994    -0.08160000
opls_593-9    C    0.43142014    0.67231979    0.55816001    -0.11350000
opls_145-10    C    0.34816003    0.66904999    0.62033993    -0.07710000
opls_145-11    C    0.32021008    0.67640960    0.63940001    -0.09570000
opls_145-12    C    0.36368990    0.78318964    0.66951994    -0.08320000
opls_145-13    C    0.39177007    0.77759955    0.65019995    -0.08160000
opls_145-14    C    0.23780996    0.77111031    0.72417002    -0.13850000
opls_145-15    C    0.28819011    0.73498022    0.75526992    -0.13820000
opls_700-16    C    0.08543009    0.20489955    0.10477994    0.07420000
opls_594-17    C    0.03130000    0.16407954    0.06561995    0.16590000
opls_700-18    C    0.17226007    0.23119971    0.16427000    0.06460000
opls_700-19    C    0.11539013    0.21815958    0.12535004    0.07400000
opls_142-20    C    0.20243994    0.23029954    0.18414997    0.01610000
opls_145-21    C    0.22365002    0.25472024    0.22927996    0.22670000
opls_700-22    C    0.97950988    0.18112007    0.09151993    0.06190000
opls_590-23    C    0.95320009    0.19915018    0.11162003    -0.04770000
opls_592-24    C    0.90449987    0.19509017    0.07769994    -0.08170000
opls_593-25    C    0.93142014    0.17231979    0.05816001    -0.11350000
opls_145-26    C    0.84816003    0.16904999    0.12033993    -0.07710000
opls_145-27    C    0.82021008    0.17640960    0.13940001    -0.09570000
opls_145-28    C    0.86368990    0.28318964    0.16951994    -0.08320000
opls_145-29    C    0.89177007    0.27759955    0.15019995    -0.08160000
opls_145-30    C    0.73780996    0.27111031    0.22417002    -0.13840000
opls_145-31    C    0.78819011    0.23498022    0.25526992    -0.13820000
opls_700-32    C    0.41456991    0.29510045    0.60477994    0.07420000
opls_594-33    C    0.46870000    0.33592046    0.56561995    0.16590000
opls_700-34    C    0.32773993    0.26880029    0.66427000    0.06460000
opls_700-35    C    0.38460987    0.28184042    0.62535004    0.07400000
opls_142-36    C    0.29756006    0.26970046    0.68414997    0.01610000
opls_145-37    C    0.27634998    0.24527976    0.72927996    0.22680000
opls_700-38    C    0.52049012    0.31887993    0.59151993    0.06190000
opls_590-39    C    0.54679991    0.30084982    0.61162003    -0.04770000
opls_592-40    C    0.59550013    0.30490983    0.57769994    -0.08170000
opls_593-41    C    0.56857986    0.32768021    0.55816001    -0.11360000
opls_145-42    C    0.65183997    0.33095001    0.62033993    -0.07710000
opls_145-43    C    0.67978992    0.32359040    0.63940001    -0.09560000
opls_145-44    C    0.63631010    0.21681036    0.66951994    -0.08320000
opls_145-45    C    0.60822993    0.22240045    0.65019995    -0.08160000
opls_145-46    C    0.76219004    0.22888969    0.72417002    -0.13850000
opls_145-47    C    0.71180989    0.26501978    0.75526992    -0.13820000
opls_700-48    C    0.91456991    0.79510045    0.10477994    0.07420000
opls_594-49    C    0.96870000    0.83592046    0.06561995    0.16600000
opls_700-50    C    0.82773993    0.76880029    0.16427000    0.06460000
opls_700-51    C    0.88460987    0.78184042    0.12535004    0.07400000
opls_142-52    C    0.79756006    0.76970046    0.18414997    0.01610000
opls_145-53    C    0.77634998    0.74527976    0.22927996    0.22670000
opls_700-54    C    0.02049012    0.81887993    0.09151993    0.06200000
opls_590-55    C    0.04679991    0.80084982    0.11162003    -0.04770000
opls_592-56    C    0.09550013    0.80490983    0.07769994    -0.08170000
opls_593-57    C    0.06857986    0.82768021    0.05816001    -0.11360000
opls_145-58    C    0.15183997    0.83095001    0.12033993    -0.07710000
opls_145-59    C    0.17978992    0.82359040    0.13940001    -0.09570000
opls_145-60    C    0.13631010    0.71681036    0.16951994    -0.08320000
opls_145-61    C    0.10822993    0.72240045    0.15019995    -0.08150000
opls_145-62    C    0.26219004    0.72888969    0.22417002    -0.13850000
opls_145-63    C    0.21180989    0.76501978    0.25526992    -0.13820000
opls_700-64    C    0.41456991    0.70489955    0.39522006    0.07420000
opls_594-65    C    0.46870000    0.66407954    0.43438005    0.16590000
opls_700-66    C    0.32773993    0.73119971    0.33573000    0.06460000
opls_700-67    C    0.38460987    0.71815958    0.37464996    0.07400000
opls_142-68    C    0.29756006    0.73029954    0.31585003    0.01610000
opls_145-69    C    0.27634998    0.75472024    0.27072004    0.22680000
opls_700-70    C    0.52049012    0.68112007    0.40848007    0.06190000
opls_590-71    C    0.54679991    0.69915018    0.38837997    -0.04770000
opls_592-72    C    0.59550013    0.69509017    0.42230006    -0.08170000
opls_593-73    C    0.56857986    0.67231979    0.44183999    -0.11360000
opls_145-74    C    0.65183997    0.66904999    0.37966007    -0.07710000
opls_145-75    C    0.67978992    0.67640960    0.36059999    -0.09570000
opls_145-76    C    0.63631010    0.78318964    0.33048006    -0.08320000
opls_145-77    C    0.60822993    0.77759955    0.34980005    -0.08160000
opls_145-78    C    0.76219004    0.77111031    0.27582998    -0.13850000
opls_145-79    C    0.71180989    0.73498022    0.24473008    -0.13820000
opls_700-80    C    0.91456991    0.20489955    0.89522006    0.07420000
opls_594-81    C    0.96870000    0.16407954    0.93438005    0.16590000
opls_700-82    C    0.82773993    0.23119971    0.83573000    0.06460000
opls_700-83    C    0.88460987    0.21815958    0.87464996    0.07400000
opls_142-84    C    0.79756006    0.23029954    0.81585003    0.01610000
opls_145-85    C    0.77634998    0.25472024    0.77072004    0.22670000
opls_700-86    C    0.02049012    0.18112007    0.90848007    0.06190000
opls_590-87    C    0.04679991    0.19915018    0.88837997    -0.04770000
opls_592-88    C    0.09550013    0.19509017    0.92230006    -0.08170000
opls_593-89    C    0.06857986    0.17231979    0.94183999    -0.11340000
opls_145-90    C    0.15183997    0.16904999    0.87966007    -0.07710000
opls_145-91    C    0.17978992    0.17640960    0.86059999    -0.09570000
opls_145-92    C    0.13631010    0.28318964    0.83048006    -0.08320000
opls_145-93    C    0.10822993    0.27759955    0.84980005    -0.08160000
opls_145-94    C    0.26219004    0.27111031    0.77582998    -0.13850000
opls_145-95    C    0.21180989    0.23498022    0.74473008    -0.13820000
opls_700-96    C    0.58543009    0.29510045    0.39522006    0.07420000
opls_594-97    C    0.53130000    0.33592046    0.43438005    0.16590000
opls_700-98    C    0.67226007    0.26880029    0.33573000    0.06460000
opls_700-99    C    0.61539013    0.28184042    0.37464996    0.07400000
opls_142-100    C    0.70243994    0.26970046    0.31585003    0.01610000
opls_145-101    C    0.72365002    0.24527976    0.27072004    0.22670000
opls_700-102    C    0.47950988    0.31887993    0.40848007    0.06190000
opls_590-103    C    0.45320009    0.30084982    0.38837997    -0.04770000
opls_592-104    C    0.40449987    0.30490983    0.42230006    -0.08170000
opls_593-105    C    0.43142014    0.32768021    0.44183999    -0.11360000
opls_145-106    C    0.34816003    0.33095001    0.37966007    -0.07710000
opls_145-107    C    0.32021008    0.32359040    0.36059999    -0.09570000
opls_145-108    C    0.36368990    0.21681036    0.33048006    -0.08320000
opls_145-109    C    0.39177007    0.22240045    0.34980005    -0.08160000
opls_145-110    C    0.23780996    0.22888969    0.27582998    -0.13850000
opls_145-111    C    0.28819011    0.26501978    0.24473008    -0.13820000
opls_700-112    C    0.08543009    0.79510045    0.89522006    0.07430000
opls_594-113    C    0.03130000    0.83592046    0.93438005    0.16590000
opls_700-114    C    0.17226007    0.76880029    0.83573000    0.06460000
opls_700-115    C    0.11539013    0.78184042    0.87464996    0.07400000
opls_142-116    C    0.20243994    0.76970046    0.81585003    0.01610000
opls_145-117    C    0.22365002    0.74527976    0.77072004    0.22670000
opls_700-118    C    0.97950988    0.81887993    0.90848007    0.06190000
opls_590-119    C    0.95320009    0.80084982    0.88837997    -0.04770000
opls_592-120    C    0.90449987    0.80490983    0.92230006    -0.08170000
opls_593-121    C    0.93142014    0.82768021    0.94183999    -0.11360000
opls_145-122    C    0.84816003    0.83095001    0.87966007    -0.07710000
opls_145-123    C    0.82021008    0.82359040    0.86059999    -0.09570000
opls_145-124    C    0.86368990    0.71681036    0.83048006    -0.08320000
opls_145-125    C    0.89177007    0.72240045    0.84980005    -0.08160000
opls_145-126    C    0.73780996    0.72888969    0.77582998    -0.13850000
opls_145-127    C    0.78819011    0.76501978    0.74473008    -0.13820000
opls_700-128    C    0.41456991    0.29510045    0.39522006    0.07420000
opls_594-129    C    0.46870000    0.33592046    0.43438005    0.16590000
opls_700-130    C    0.32773993    0.26880029    0.33573000    0.06460000
opls_700-131    C    0.38460987    0.28184042    0.37464996    0.07400000
opls_142-132    C    0.29756006    0.26970046    0.31585003    0.01610000
opls_145-133    C    0.27634998    0.24527976    0.27072004    0.22680000
opls_700-134    C    0.52049012    0.31887993    0.40848007    0.06190000
opls_590-135    C    0.54679991    0.30084982    0.38837997    -0.04770000
opls_592-136    C    0.59550013    0.30490983    0.42230006    -0.08170000
opls_593-137    C    0.56857986    0.32768021    0.44183999    -0.11360000
opls_145-138    C    0.65183997    0.33095001    0.37966007    -0.07710000
opls_145-139    C    0.67978992    0.32359040    0.36059999    -0.09570000
opls_145-140    C    0.63631010    0.21681036    0.33048006    -0.08320000
opls_145-141    C    0.60822993    0.22240045    0.34980005    -0.08160000
opls_145-142    C    0.76219004    0.22888969    0.27582998    -0.13850000
opls_145-143    C    0.71180989    0.26501978    0.24473008    -0.13820000
opls_700-144    C    0.91456991    0.79510045    0.89522006    0.07420000
opls_594-145    C    0.96870000    0.83592046    0.93438005    0.16590000
opls_700-146    C    0.82773993    0.76880029    0.83573000    0.06460000
opls_700-147    C    0.88460987    0.78184042    0.87464996    0.07400000
opls_142-148    C    0.79756006    0.76970046    0.81585003    0.01610000
opls_145-149    C    0.77634998    0.74527976    0.77072004    0.22670000
opls_700-150    C    0.02049012    0.81887993    0.90848007    0.06190000
opls_590-151    C    0.04679991    0.80084982    0.88837997    -0.04770000
opls_592-152    C    0.09550013    0.80490983    0.92230006    -0.08170000
opls_593-153    C    0.06857986    0.82768021    0.94183999    -0.11350000
opls_145-154    C    0.15183997    0.83095001    0.87966007    -0.07700000
opls_145-155    C    0.17978992    0.82359040    0.86059999    -0.09570000
opls_145-156    C    0.13631010    0.71681036    0.83048006    -0.08320000
opls_145-157    C    0.10822993    0.72240045    0.84980005    -0.08160000
opls_145-158    C    0.26219004    0.72888969    0.77582998    -0.13850000
opls_145-159    C    0.21180989    0.76501978    0.74473008    -0.13820000
opls_700-160    C    0.58543009    0.70489955    0.39522006    0.07420000
opls_594-161    C    0.53130000    0.66407954    0.43438005    0.16590000
opls_700-162    C    0.67226007    0.73119971    0.33573000    0.06470000
opls_700-163    C    0.61539013    0.71815958    0.37464996    0.07400000
opls_142-164    C    0.70243994    0.73029954    0.31585003    0.01610000
opls_145-165    C    0.72365002    0.75472024    0.27072004    0.22670000
opls_700-166    C    0.47950988    0.68112007    0.40848007    0.06190000
opls_590-167    C    0.45320009    0.69915018    0.38837997    -0.04770000
opls_592-168    C    0.40449987    0.69509017    0.42230006    -0.08170000
opls_593-169    C    0.43142014    0.67231979    0.44183999    -0.11360000
opls_145-170    C    0.34816003    0.66904999    0.37966007    -0.07710000
opls_145-171    C    0.32021008    0.67640960    0.36059999    -0.09570000
opls_145-172    C    0.36368990    0.78318964    0.33048006    -0.08320000
opls_145-173    C    0.39177007    0.77759955    0.34980005    -0.08160000
opls_145-174    C    0.23780996    0.77111031    0.27582998    -0.13850000
opls_145-175    C    0.28819011    0.73498022    0.24473008    -0.13810000
opls_700-176    C    0.08543009    0.20489955    0.89522006    0.07420000
opls_594-177    C    0.03130000    0.16407954    0.93438005    0.16590000
opls_700-178    C    0.17226007    0.23119971    0.83573000    0.06460000
opls_700-179    C    0.11539013    0.21815958    0.87464996    0.07410000
opls_142-180    C    0.20243994    0.23029954    0.81585003    0.01610000
opls_145-181    C    0.22365002    0.25472024    0.77072004    0.22670000
opls_700-182    C    0.97950988    0.18112007    0.90848007    0.06190000
opls_590-183    C    0.95320009    0.19915018    0.88837997    -0.04770000
opls_592-184    C    0.90449987    0.19509017    0.92230006    -0.08170000
opls_593-185    C    0.93142014    0.17231979    0.94183999    -0.11350000
opls_145-186    C    0.84816003    0.16904999    0.87966007    -0.07690000
opls_145-187    C    0.82021008    0.17640960    0.86059999    -0.09570000
opls_145-188    C    0.86368990    0.28318964    0.83048006    -0.08320000
opls_145-189    C    0.89177007    0.27759955    0.84980005    -0.08160000
opls_145-190    C    0.73780996    0.27111031    0.77582998    -0.13850000
opls_145-191    C    0.78819011    0.23498022    0.74473008    -0.13820000
opls_700-192    C    0.58543009    0.29510045    0.60477994    0.07420000
opls_594-193    C    0.53130000    0.33592046    0.56561995    0.16600000
opls_700-194    C    0.67226007    0.26880029    0.66427000    0.06460000
opls_700-195    C    0.61539013    0.28184042    0.62535004    0.07410000
opls_142-196    C    0.70243994    0.26970046    0.68414997    0.01610000
opls_145-197    C    0.72365002    0.24527976    0.72927996    0.22670000
opls_700-198    C    0.47950988    0.31887993    0.59151993    0.06190000
opls_590-199    C    0.45320009    0.30084982    0.61162003    -0.04770000
opls_592-200    C    0.40449987    0.30490983    0.57769994    -0.08170000
opls_593-201    C    0.43142014    0.32768021    0.55816001    -0.11360000
opls_145-202    C    0.34816003    0.33095001    0.62033993    -0.07710000
opls_145-203    C    0.32021008    0.32359040    0.63940001    -0.09570000
opls_145-204    C    0.36368990    0.21681036    0.66951994    -0.08320000
opls_145-205    C    0.39177007    0.22240045    0.65019995    -0.08160000
opls_145-206    C    0.23780996    0.22888969    0.72417002    -0.13850000
opls_145-207    C    0.28819011    0.26501978    0.75526992    -0.13820000
opls_700-208    C    0.08543009    0.79510045    0.10477994    0.07420000
opls_594-209    C    0.03130000    0.83592046    0.06561995    0.16590000
opls_700-210    C    0.17226007    0.76880029    0.16427000    0.06460000
opls_700-211    C    0.11539013    0.78184042    0.12535004    0.07400000
opls_142-212    C    0.20243994    0.76970046    0.18414997    0.01610000
opls_145-213    C    0.22365002    0.74527976    0.22927996    0.22670000
opls_700-214    C    0.97950988    0.81887993    0.09151993    0.06190000
opls_590-215    C    0.95320009    0.80084982    0.11162003    -0.04770000
opls_592-216    C    0.90449987    0.80490983    0.07769994    -0.08170000
opls_593-217    C    0.93142014    0.82768021    0.05816001    -0.11360000
opls_145-218    C    0.84816003    0.83095001    0.12033993    -0.07710000
opls_145-219    C    0.82021008    0.82359040    0.13940001    -0.09570000
opls_145-220    C    0.86368990    0.71681036    0.16951994    -0.08320000
opls_145-221    C    0.89177007    0.72240045    0.15019995    -0.08160000
opls_145-222    C    0.73780996    0.72888969    0.22417002    -0.13840000
opls_145-223    C    0.78819011    0.76501978    0.25526992    -0.13820000
opls_700-224    C    0.41456991    0.70489955    0.60477994    0.07430000
opls_594-225    C    0.46870000    0.66407954    0.56561995    0.16590000
opls_700-226    C    0.32773993    0.73119971    0.66427000    0.06460000
opls_700-227    C    0.38460987    0.71815958    0.62535004    0.07400000
opls_142-228    C    0.29756006    0.73029954    0.68414997    0.01610000
opls_145-229    C    0.27634998    0.75472024    0.72927996    0.22670000
opls_700-230    C    0.52049012    0.68112007    0.59151993    0.06190000
opls_590-231    C    0.54679991    0.69915018    0.61162003    -0.04760000
opls_592-232    C    0.59550013    0.69509017    0.57769994    -0.08170000
opls_593-233    C    0.56857986    0.67231979    0.55816001    -0.11350000
opls_145-234    C    0.65183997    0.66904999    0.62033993    -0.07710000
opls_145-235    C    0.67978992    0.67640960    0.63940001    -0.09570000
opls_145-236    C    0.63631010    0.78318964    0.66951994    -0.08320000
opls_145-237    C    0.60822993    0.77759955    0.65019995    -0.08160000
opls_145-238    C    0.76219004    0.77111031    0.72417002    -0.13850000
opls_145-239    C    0.71180989    0.73498022    0.75526992    -0.13820000
opls_700-240    C    0.91456991    0.20489955    0.10477994    0.07420000
opls_594-241    C    0.96870000    0.16407954    0.06561995    0.16620000
opls_700-242    C    0.82773993    0.23119971    0.16427000    0.06460000
opls_700-243    C    0.88460987    0.21815958    0.12535004    0.07400000
opls_142-244    C    0.79756006    0.23029954    0.18414997    0.01610000
opls_145-245    C    0.77634998    0.25472024    0.22927996    0.22670000
opls_700-246    C    0.02049012    0.18112007    0.09151993    0.06190000
opls_590-247    C    0.04679991    0.19915018    0.11162003    -0.04770000
opls_592-248    C    0.09550013    0.19509017    0.07769994    -0.08170000
opls_593-249    C    0.06857986    0.17231979    0.05816001    -0.11360000
opls_145-250    C    0.15183997    0.16904999    0.12033993    -0.07710000
opls_145-251    C    0.17978992    0.17640960    0.13940001    -0.09570000
opls_145-252    C    0.13631010    0.28318964    0.16951994    -0.08320000
opls_145-253    C    0.10822993    0.27759955    0.15019995    -0.08160000
opls_145-254    C    0.26219004    0.27111031    0.22417002    -0.13850000
opls_145-255    C    0.21180989    0.23498022    0.25526992    -0.13810000
opls_145-256    C    0.50000000    0.57036017    0.52436003    0.07970000
opls_145-257    C    0.00000000    0.07036017    0.02436003    0.07970000
opls_145-258    C    0.50000000    0.42963983    0.52436003    0.07970000
opls_145-259    C    0.00000000    0.92963983    0.02436003    0.07970000
opls_145-260    C    0.50000000    0.57036017    0.47563997    0.07980000
opls_145-261    C    0.00000000    0.07036017    0.97563997    0.07970000
opls_145-262    C    0.50000000    0.42963983    0.47563997    0.07980000
opls_145-263    C    0.00000000    0.92963983    0.97563997    0.07980000
opls_260-264    C    0.50000000    0.63518985    0.50000000    -0.07520000
opls_423-265    C    0.50000000    0.77037045    0.50000000    0.34630000
opls_260-266    C    0.00000000    0.13518985    0.00000000    -0.07520000
opls_423-267    C    0.00000000    0.27037045    0.00000000    0.34630000
opls_260-268    C    0.50000000    0.36481015    0.50000000    -0.07510000
opls_423-269    C    0.50000000    0.22962955    0.50000000    0.34640000
opls_260-270    C    0.00000000    0.86481015    0.00000000    -0.07520000
opls_423-271    C    0.00000000    0.72962955    0.00000000    0.34630000
opls_750-272    N    0.69588994    0.75789036    0.70875002    -0.28180000
opls_750-273    N    0.19588994    0.25789036    0.20875002    -0.28180000
opls_750-274    N    0.30411006    0.24210964    0.70875002    -0.28190000
opls_750-275    N    0.80411006    0.74210964    0.20875002    -0.28180000
opls_750-276    N    0.30411006    0.75789036    0.29124998    -0.28190000
opls_750-277    N    0.80411006    0.25789036    0.79124998    -0.28180000
opls_750-278    N    0.69588994    0.24210964    0.29124998    -0.28190000
opls_750-279    N    0.19588994    0.74210964    0.79124998    -0.28180000
opls_750-280    N    0.30411006    0.24210964    0.29124998    -0.28190000
opls_750-281    N    0.80411006    0.74210964    0.79124998    -0.28190000
opls_750-282    N    0.69588994    0.75789036    0.29124998    -0.28190000
opls_750-283    N    0.19588994    0.25789036    0.79124998    -0.28190000
opls_750-284    N    0.69588994    0.24210964    0.70875002    -0.28190000
opls_750-285    N    0.19588994    0.74210964    0.20875002    -0.28190000
opls_750-286    N    0.30411006    0.75789036    0.70875002    -0.28190000
opls_750-287    N    0.80411006    0.25789036    0.20875002    -0.28190000
opls_542-288    N    0.50000000    0.64854031    0.54844006    -0.11640000
opls_542-289    N    0.00000000    0.14854031    0.04844006    -0.11630000
opls_542-290    N    0.50000000    0.35145969    0.54844006    -0.11630000
opls_542-291    N    0.00000000    0.85145969    0.04844006    -0.11630000
opls_542-292    N    0.50000000    0.64854031    0.45155994    -0.11640000
opls_542-293    N    0.00000000    0.14854031    0.95155994    -0.11640000
opls_542-294    N    0.50000000    0.35145969    0.45155994    -0.11640000
opls_542-295    N    0.00000000    0.85145969    0.95155994    -0.11630000
opls_262-296    N    0.50000000    0.88381956    0.50000000    -0.24220000
opls_262-297    N    0.00000000    0.38381956    0.00000000    -0.24230000
opls_262-298    N    0.50000000    0.11618044    0.50000000    -0.24230000
opls_262-299    N    0.00000000    0.61618044    0.00000000    -0.24230000
opls_144-300    H    0.73238010    0.70494990    0.67805002    0.02880000
opls_599-301    H    0.46286996    0.70888044    0.63293008    0.04870000
opls_601-302    H    0.37374006    0.70622001    0.57209991    0.04870000
opls_602-303    H    0.42246996    0.66103992    0.53672001    0.04870000
opls_146-304    H    0.34176993    0.62262960    0.60022998    0.04870000
opls_146-305    H    0.29081991    0.63749987    0.63479000    0.04870000
opls_146-306    H    0.36999011    0.83010019    0.68961000    0.04820000
opls_146-307    H    0.42074999    0.82135950    0.65450004    0.04870000
opls_146-308    H    0.22766992    0.78946000    0.70317993    0.04870000
opls_146-309    H    0.31928989    0.72369008    0.75985000    0.04870000
opls_144-310    H    0.23238010    0.20494990    0.17805002    0.02880000
opls_599-311    H    0.96286996    0.20888044    0.13293008    0.04870000
opls_601-312    H    0.87374006    0.20622001    0.07209991    0.04870000
opls_602-313    H    0.92246996    0.16103992    0.03672001    0.04880000
opls_146-314    H    0.84176993    0.12262960    0.10022998    0.04870000
opls_146-315    H    0.79081991    0.13749987    0.13479000    0.04870000
opls_146-316    H    0.86999011    0.33010019    0.18961000    0.04820000
opls_146-317    H    0.92074999    0.32135950    0.15450004    0.04870000
opls_146-318    H    0.72766992    0.28946000    0.20317993    0.04870000
opls_146-319    H    0.81928989    0.22369008    0.25985000    0.04870000
opls_144-320    H    0.26761990    0.29505010    0.67805002    0.02880000
opls_599-321    H    0.53713004    0.29111956    0.63293008    0.04870000
opls_601-322    H    0.62625994    0.29377999    0.57209991    0.04870000
opls_602-323    H    0.57753004    0.33896008    0.53672001    0.04870000
opls_146-324    H    0.65823007    0.37737040    0.60022998    0.04870000
opls_146-325    H    0.70918009    0.36250013    0.63479000    0.04870000
opls_146-326    H    0.63000989    0.16989981    0.68961000    0.04820000
opls_146-327    H    0.57925001    0.17864050    0.65450004    0.04870000
opls_146-328    H    0.77233008    0.21054000    0.70317993    0.04870000
opls_146-329    H    0.68071011    0.27630992    0.75985000    0.04870000
opls_144-330    H    0.76761990    0.79505010    0.17805002    0.02880000
opls_599-331    H    0.03713004    0.79111956    0.13293008    0.04870000
opls_601-332    H    0.12625994    0.79377999    0.07209991    0.04870000
opls_602-333    H    0.07753004    0.83896008    0.03672001    0.04870000
opls_146-334    H    0.15823007    0.87737040    0.10022998    0.04870000
opls_146-335    H    0.20918009    0.86250013    0.13479000    0.04870000
opls_146-336    H    0.13000989    0.66989981    0.18961000    0.04820000
opls_146-337    H    0.07925001    0.67864050    0.15450004    0.04870000
opls_146-338    H    0.27233008    0.71054000    0.20317993    0.04870000
opls_146-339    H    0.18071011    0.77630992    0.25985000    0.04870000
opls_144-340    H    0.26761990    0.70494990    0.32194998    0.02880000
opls_599-341    H    0.53713004    0.70888044    0.36706992    0.04870000
opls_601-342    H    0.62625994    0.70622001    0.42790009    0.04870000
opls_602-343    H    0.57753004    0.66103992    0.46327999    0.04870000
opls_146-344    H    0.65823007    0.62262960    0.39977002    0.04870000
opls_146-345    H    0.70918009    0.63749987    0.36521000    0.04870000
opls_146-346    H    0.63000989    0.83010019    0.31039000    0.04830000
opls_146-347    H    0.57925001    0.82135950    0.34549996    0.04870000
opls_146-348    H    0.77233008    0.78946000    0.29682007    0.04870000
opls_146-349    H    0.68071011    0.72369008    0.24015000    0.04870000
opls_144-350    H    0.76761990    0.20494990    0.82194998    0.02880000
opls_599-351    H    0.03713004    0.20888044    0.86706992    0.04870000
opls_601-352    H    0.12625994    0.20622001    0.92790009    0.04870000
opls_602-353    H    0.07753004    0.16103992    0.96327999    0.04870000
opls_146-354    H    0.15823007    0.12262960    0.89977002    0.04870000
opls_146-355    H    0.20918009    0.13749987    0.86521000    0.04870000
opls_146-356    H    0.13000989    0.33010019    0.81039000    0.04820000
opls_146-357    H    0.07925001    0.32135950    0.84549996    0.04870000
opls_146-358    H    0.27233008    0.28946000    0.79682007    0.04870000
opls_146-359    H    0.18071011    0.22369008    0.74015000    0.04870000
opls_144-360    H    0.73238010    0.29505010    0.32194998    0.02880000
opls_599-361    H    0.46286996    0.29111956    0.36706992    0.04870000
opls_601-362    H    0.37374006    0.29377999    0.42790009    0.04870000
opls_602-363    H    0.42246996    0.33896008    0.46327999    0.04870000
opls_146-364    H    0.34176993    0.37737040    0.39977002    0.04870000
opls_146-365    H    0.29081991    0.36250013    0.36521000    0.04880000
opls_146-366    H    0.36999011    0.16989981    0.31039000    0.04820000
opls_146-367    H    0.42074999    0.17864050    0.34549996    0.04870000
opls_146-368    H    0.22766992    0.21054000    0.29682007    0.04870000
opls_146-369    H    0.31928989    0.27630992    0.24015000    0.04870000
opls_144-370    H    0.23238010    0.79505010    0.82194998    0.02880000
opls_599-371    H    0.96286996    0.79111956    0.86706992    0.04870000
opls_601-372    H    0.87374006    0.79377999    0.92790009    0.04870000
opls_602-373    H    0.92246996    0.83896008    0.96327999    0.04870000
opls_146-374    H    0.84176993    0.87737040    0.89977002    0.04870000
opls_146-375    H    0.79081991    0.86250013    0.86521000    0.04870000
opls_146-376    H    0.86999011    0.66989981    0.81039000    0.04820000
opls_146-377    H    0.92074999    0.67864050    0.84549996    0.04870000
opls_146-378    H    0.72766992    0.71054000    0.79682007    0.04870000
opls_146-379    H    0.81928989    0.77630992    0.74015000    0.04870000
opls_144-380    H    0.26761990    0.29505010    0.32194998    0.02880000
opls_599-381    H    0.53713004    0.29111956    0.36706992    0.04870000
opls_601-382    H    0.62625994    0.29377999    0.42790009    0.04870000
opls_602-383    H    0.57753004    0.33896008    0.46327999    0.04870000
opls_146-384    H    0.65823007    0.37737040    0.39977002    0.04870000
opls_146-385    H    0.70918009    0.36250013    0.36521000    0.04870000
opls_146-386    H    0.63000989    0.16989981    0.31039000    0.04820000
opls_146-387    H    0.57925001    0.17864050    0.34549996    0.04870000
opls_146-388    H    0.77233008    0.21054000    0.29682007    0.04870000
opls_146-389    H    0.68071011    0.27630992    0.24015000    0.04870000
opls_144-390    H    0.76761990    0.79505010    0.82194998    0.02880000
opls_599-391    H    0.03713004    0.79111956    0.86706992    0.04870000
opls_601-392    H    0.12625994    0.79377999    0.92790009    0.04870000
opls_602-393    H    0.07753004    0.83896008    0.96327999    0.04870000
opls_146-394    H    0.15823007    0.87737040    0.89977002    0.04870000
opls_146-395    H    0.20918009    0.86250013    0.86521000    0.04880000
opls_146-396    H    0.13000989    0.66989981    0.81039000    0.04820000
opls_146-397    H    0.07925001    0.67864050    0.84549996    0.04870000
opls_146-398    H    0.27233008    0.71054000    0.79682007    0.04870000
opls_146-399    H    0.18071011    0.77630992    0.74015000    0.04870000
opls_144-400    H    0.73238010    0.70494990    0.32194998    0.02880000
opls_599-401    H    0.46286996    0.70888044    0.36706992    0.04870000
opls_601-402    H    0.37374006    0.70622001    0.42790009    0.04870000
opls_602-403    H    0.42246996    0.66103992    0.46327999    0.04870000
opls_146-404    H    0.34176993    0.62262960    0.39977002    0.04870000
opls_146-405    H    0.29081991    0.63749987    0.36521000    0.04870000
opls_146-406    H    0.36999011    0.83010019    0.31039000    0.04820000
opls_146-407    H    0.42074999    0.82135950    0.34549996    0.04870000
opls_146-408    H    0.22766992    0.78946000    0.29682007    0.04870000
opls_146-409    H    0.31928989    0.72369008    0.24015000    0.04870000
opls_144-410    H    0.23238010    0.20494990    0.82194998    0.02880000
opls_599-411    H    0.96286996    0.20888044    0.86706992    0.04890000
opls_601-412    H    0.87374006    0.20622001    0.92790009    0.04870000
opls_602-413    H    0.92246996    0.16103992    0.96327999    0.04870000
opls_146-414    H    0.84176993    0.12262960    0.89977002    0.04870000
opls_146-415    H    0.79081991    0.13749987    0.86521000    0.04870000
opls_146-416    H    0.86999011    0.33010019    0.81039000    0.04820000
opls_146-417    H    0.92074999    0.32135950    0.84549996    0.04870000
opls_146-418    H    0.72766992    0.28946000    0.79682007    0.04870000
opls_146-419    H    0.81928989    0.22369008    0.74015000    0.04870000
opls_144-420    H    0.73238010    0.29505010    0.67805002    0.02880000
opls_599-421    H    0.46286996    0.29111956    0.63293008    0.04870000
opls_601-422    H    0.37374006    0.29377999    0.57209991    0.04870000
opls_602-423    H    0.42246996    0.33896008    0.53672001    0.04870000
opls_146-424    H    0.34176993    0.37737040    0.60022998    0.04870000
opls_146-425    H    0.29081991    0.36250013    0.63479000    0.04870000
opls_146-426    H    0.36999011    0.16989981    0.68961000    0.04820000
opls_146-427    H    0.42074999    0.17864050    0.65450004    0.04870000
opls_146-428    H    0.22766992    0.21054000    0.70317993    0.04880000
opls_146-429    H    0.31928989    0.27630992    0.75985000    0.04870000
opls_144-430    H    0.23238010    0.79505010    0.17805002    0.02880000
opls_599-431    H    0.96286996    0.79111956    0.13293008    0.04870000
opls_601-432    H    0.87374006    0.79377999    0.07209991    0.04870000
opls_602-433    H    0.92246996    0.83896008    0.03672001    0.04870000
opls_146-434    H    0.84176993    0.87737040    0.10022998    0.04870000
opls_146-435    H    0.79081991    0.86250013    0.13479000    0.04870000
opls_146-436    H    0.86999011    0.66989981    0.18961000    0.04820000
opls_146-437    H    0.92074999    0.67864050    0.15450004    0.04870000
opls_146-438    H    0.72766992    0.71054000    0.20317993    0.04870000
opls_146-439    H    0.81928989    0.77630992    0.25985000    0.04870000
opls_144-440    H    0.26761990    0.70494990    0.67805002    0.02880000
opls_599-441    H    0.53713004    0.70888044    0.63293008    0.04880000
opls_601-442    H    0.62625994    0.70622001    0.57209991    0.04870000
opls_602-443    H    0.57753004    0.66103992    0.53672001    0.04870000
opls_146-444    H    0.65823007    0.62262960    0.60022998    0.04870000
opls_146-445    H    0.70918009    0.63749987    0.63479000    0.04870000
opls_146-446    H    0.63000989    0.83010019    0.68961000    0.04820000
opls_146-447    H    0.57925001    0.82135950    0.65450004    0.04870000
opls_146-448    H    0.77233008    0.78946000    0.70317993    0.04870000
opls_146-449    H    0.68071011    0.72369008    0.75985000    0.04880000
opls_144-450    H    0.76761990    0.20494990    0.17805002    0.02880000
opls_599-451    H    0.03713004    0.20888044    0.13293008    0.04870000
opls_601-452    H    0.12625994    0.20622001    0.07209991    0.04870000
opls_602-453    H    0.07753004    0.16103992    0.03672001    0.04870000
opls_146-454    H    0.15823007    0.12262960    0.10022998    0.04870000
opls_146-455    H    0.20918009    0.13749987    0.13479000    0.04870000
opls_146-456    H    0.13000989    0.33010019    0.18961000    0.04820000
opls_146-457    H    0.07925001    0.32135950    0.15450004    0.04870000
opls_146-458    H    0.27233008    0.28946000    0.20317993    0.04870000
opls_146-459    H    0.18071011    0.22369008    0.25985000    0.04870000
