#======================================================================
# Crystal Data Generated By AuToFF
#----------------------------------------------------------------------

data_AuToFF_phase_1

_cell_length_a                         26.4616
_cell_length_b                         26.4616
_cell_length_c                         24.9644
_cell_angle_alpha                      90.00
_cell_angle_beta                       90.00
_cell_angle_gamma                      90.00
_symmetry_space_group_name_H-M_alt     'P 1'
_symmetry_space_group_IT_number        1

loop_
_space_group_symop_operation_xyz
   'x, y, z'

loop_
   _atom_site_label
   _atom_site_type_symbol
   _atom_site_fract_x
   _atom_site_fract_y
   _atom_site_fract_z
   _atom_site_charge
opls_145-0    C    0.99347016    0.09532984    0.47346982    -0.17380000
opls_166-1    C    0.99103002    0.13052007    0.43077983    0.28340000
opls_700-2    C    0.99218981    0.11271012    0.37717990    -0.04870000
opls_145-3    C    0.99577010    0.06057986    0.36648988    -0.07900000
opls_700-4    C    0.99811992    0.02727991    0.40944986    0.03490000
opls_700-5    C    0.99698998    0.04391987    0.46178999    0.04990000
opls_142-6    C    0.98964991    0.14885003    0.33249988    0.01500000
opls_145-7    C    0.98065007    0.21932990    0.24481982    -0.16150000
opls_700-8    C    0.97993999    0.25149008    0.20042981    0.13910000
opls_700-9    C    0.99200993    0.23268019    0.14829998    -0.04000000
opls_700-10    C    0.98526015    0.17939996    0.14222012    0.14150000
opls_145-11    C    0.98598989    0.14759992    0.18689013    -0.16290000
opls_145-12    C    0.98786997    0.16744981    0.23835982    0.24290000
opls_181-13    C    0.98646000    0.19830018    0.49445010    -0.16680000
opls_148-14    C    0.95381987    0.30071991    0.20938016    -0.35050000
opls_148-15    C    0.96445000    0.15602004    0.09253016    -0.35050000
opls_701-16    C    0.00000000    0.00000000    0.50000000    -0.00610000
opls_145-17    C    0.50652984    0.40467016    0.97346982    -0.17380000
opls_166-18    C    0.50896998    0.36947993    0.93077983    0.28340000
opls_700-19    C    0.50781019    0.38728988    0.87717990    -0.04870000
opls_145-20    C    0.50422990    0.43942014    0.86648988    -0.07900000
opls_700-21    C    0.50188008    0.47272009    0.90944986    0.03490000
opls_700-22    C    0.50301002    0.45608013    0.96178999    0.04990000
opls_142-23    C    0.51035009    0.35114997    0.83249988    0.01500000
opls_145-24    C    0.51934993    0.28067010    0.74481982    -0.16150000
opls_700-25    C    0.52006001    0.24850992    0.70042981    0.13910000
opls_700-26    C    0.50799007    0.26731981    0.64829998    -0.04000000
opls_700-27    C    0.51473985    0.32060004    0.64222012    0.14150000
opls_145-28    C    0.51401011    0.35240008    0.68689013    -0.16310000
opls_145-29    C    0.51213003    0.33255019    0.73835982    0.24300000
opls_181-30    C    0.51354000    0.30169982    0.99445010    -0.16680000
opls_148-31    C    0.54618013    0.19928009    0.70938016    -0.35040000
opls_148-32    C    0.53555000    0.34397996    0.59253016    -0.35050000
opls_701-33    C    0.50000000    0.50000000    0.00000000    -0.00610000
opls_145-34    C    0.90467016    0.49347016    0.72346982    -0.17380000
opls_166-35    C    0.86947993    0.49103002    0.68077983    0.28340000
opls_700-36    C    0.88728988    0.49218981    0.62717990    -0.04870000
opls_145-37    C    0.93942014    0.49577010    0.61648988    -0.07900000
opls_700-38    C    0.97272009    0.49811992    0.65944986    0.03500000
opls_700-39    C    0.95608013    0.49698998    0.71178999    0.04990000
opls_142-40    C    0.85114997    0.48964991    0.58249988    0.01500000
opls_145-41    C    0.78067010    0.48065007    0.49481982    -0.16150000
opls_700-42    C    0.74850992    0.47993999    0.45042981    0.13910000
opls_700-43    C    0.76731981    0.49200993    0.39829998    -0.04000000
opls_700-44    C    0.82060004    0.48526015    0.39222012    0.14150000
opls_145-45    C    0.85240008    0.48598989    0.43689013    -0.16310000
opls_145-46    C    0.83255019    0.48786997    0.48835982    0.24290000
opls_181-47    C    0.80169982    0.48646000    0.74445010    -0.16680000
opls_148-48    C    0.69928009    0.45381987    0.45938016    -0.35050000
opls_148-49    C    0.84397996    0.46445000    0.34253016    -0.35050000
opls_701-50    C    0.00000000    0.50000000    0.75000000    -0.00610000
opls_145-51    C    0.59532984    0.00652984    0.22346982    -0.17370000
opls_166-52    C    0.63052007    0.00896998    0.18077983    0.28340000
opls_700-53    C    0.61271012    0.00781019    0.12717990    -0.04870000
opls_145-54    C    0.56057986    0.00422990    0.11648988    -0.07900000
opls_700-55    C    0.52727991    0.00188008    0.15944986    0.03490000
opls_700-56    C    0.54391987    0.00301002    0.21178999    0.04990000
opls_142-57    C    0.64885003    0.01035009    0.08249988    0.01500000
opls_145-58    C    0.71932990    0.01934993    0.99481982    -0.16140000
opls_700-59    C    0.75149008    0.02006001    0.95042981    0.13910000
opls_700-60    C    0.73268019    0.00799007    0.89829998    -0.04000000
opls_700-61    C    0.67939996    0.01473985    0.89222012    0.14150000
opls_145-62    C    0.64759992    0.01401011    0.93689013    -0.16310000
opls_145-63    C    0.66744981    0.01213003    0.98835982    0.24290000
opls_181-64    C    0.69830018    0.01354000    0.24445010    -0.16670000
opls_148-65    C    0.80071991    0.04618013    0.95938016    -0.35050000
opls_148-66    C    0.65602004    0.03555000    0.84253016    -0.35050000
opls_701-67    C    0.50000000    0.00000000    0.25000000    -0.00610000
opls_145-68    C    0.00652984    0.40467016    0.77653018    -0.17380000
opls_166-69    C    0.00896998    0.36947993    0.81922017    0.28340000
opls_700-70    C    0.00781019    0.38728988    0.87282010    -0.04870000
opls_145-71    C    0.00422990    0.43942014    0.88351012    -0.07900000
opls_700-72    C    0.00188008    0.47272009    0.84055014    0.03490000
opls_700-73    C    0.00301002    0.45608013    0.78821001    0.04990000
opls_142-74    C    0.01035009    0.35114997    0.91750012    0.01500000
opls_145-75    C    0.01934993    0.28067010    0.00518018    -0.16150000
opls_700-76    C    0.02006001    0.24850992    0.04957019    0.13910000
opls_700-77    C    0.00799007    0.26731981    0.10170002    -0.04000000
opls_700-78    C    0.01473985    0.32060004    0.10777988    0.14150000
opls_145-79    C    0.01401011    0.35240008    0.06310987    -0.16310000
opls_145-80    C    0.01213003    0.33255019    0.01164018    0.24290000
opls_181-81    C    0.01354000    0.30169982    0.75554990    -0.16680000
opls_148-82    C    0.04618013    0.19928009    0.04061984    -0.35050000
opls_148-83    C    0.03555000    0.34397996    0.15746984    -0.35050000
opls_145-84    C    0.49347016    0.09532984    0.27653018    -0.17380000
opls_166-85    C    0.49103002    0.13052007    0.31922017    0.28340000
opls_700-86    C    0.49218981    0.11271012    0.37282010    -0.04870000
opls_145-87    C    0.49577010    0.06057986    0.38351012    -0.07900000
opls_700-88    C    0.49811992    0.02727991    0.34055014    0.03490000
opls_700-89    C    0.49698998    0.04391987    0.28821001    0.04990000
opls_142-90    C    0.48964991    0.14885003    0.41750012    0.01500000
opls_145-91    C    0.48065007    0.21932990    0.50518018    -0.16150000
opls_700-92    C    0.47993999    0.25149008    0.54957019    0.13910000
opls_700-93    C    0.49200993    0.23268019    0.60170002    -0.04000000
opls_700-94    C    0.48526015    0.17939996    0.60777988    0.14160000
opls_145-95    C    0.48598989    0.14759992    0.56310987    -0.16310000
opls_145-96    C    0.48786997    0.16744981    0.51164018    0.24290000
opls_181-97    C    0.48646000    0.19830018    0.25554990    -0.16680000
opls_148-98    C    0.45381987    0.30071991    0.54061984    -0.35050000
opls_148-99    C    0.46445000    0.15602004    0.65746984    -0.35050000
opls_145-100    C    0.09532984    0.00652984    0.52653018    -0.17380000
opls_166-101    C    0.13052007    0.00896998    0.56922017    0.28340000
opls_700-102    C    0.11271012    0.00781019    0.62282010    -0.04870000
opls_145-103    C    0.06057986    0.00422990    0.63351012    -0.07900000
opls_700-104    C    0.02727991    0.00188008    0.59055014    0.03490000
opls_700-105    C    0.04391987    0.00301002    0.53821001    0.04990000
opls_142-106    C    0.14885003    0.01035009    0.66750012    0.01500000
opls_145-107    C    0.21932990    0.01934993    0.75518018    -0.16150000
opls_700-108    C    0.25149008    0.02006001    0.79957019    0.13910000
opls_700-109    C    0.23268019    0.00799007    0.85170002    -0.04000000
opls_700-110    C    0.17939996    0.01473985    0.85777988    0.14150000
opls_145-111    C    0.14759992    0.01401011    0.81310987    -0.16310000
opls_145-112    C    0.16744981    0.01213003    0.76164018    0.24290000
opls_181-113    C    0.19830018    0.01354000    0.50554990    -0.16680000
opls_148-114    C    0.30071991    0.04618013    0.79061984    -0.35040000
opls_148-115    C    0.15602004    0.03555000    0.90746984    -0.35050000
opls_145-116    C    0.40467016    0.49347016    0.02653018    -0.17380000
opls_166-117    C    0.36947993    0.49103002    0.06922017    0.28340000
opls_700-118    C    0.38728988    0.49218981    0.12282010    -0.04870000
opls_145-119    C    0.43942014    0.49577010    0.13351012    -0.07900000
opls_700-120    C    0.47272009    0.49811992    0.09055014    0.03490000
opls_700-121    C    0.45608013    0.49698998    0.03821001    0.04990000
opls_142-122    C    0.35114997    0.48964991    0.16750012    0.01500000
opls_145-123    C    0.28067010    0.48065007    0.25518018    -0.16150000
opls_700-124    C    0.24850992    0.47993999    0.29957019    0.13910000
opls_700-125    C    0.26731981    0.49200993    0.35170002    -0.04000000
opls_700-126    C    0.32060004    0.48526015    0.35777988    0.14150000
opls_145-127    C    0.35240008    0.48598989    0.31310987    -0.16310000
opls_145-128    C    0.33255019    0.48786997    0.26164018    0.24290000
opls_181-129    C    0.30169982    0.48646000    0.00554990    -0.16680000
opls_148-130    C    0.19928009    0.45381987    0.29061984    -0.35050000
opls_148-131    C    0.34397996    0.46445000    0.40746984    -0.35050000
opls_145-132    C    0.40467016    0.99347016    0.22346982    -0.17380000
opls_166-133    C    0.36947993    0.99103002    0.18077983    0.28350000
opls_700-134    C    0.38728988    0.99218981    0.12717990    -0.04870000
opls_145-135    C    0.43942014    0.99577010    0.11648988    -0.07900000
opls_700-136    C    0.47272009    0.99811992    0.15944986    0.03490000
opls_700-137    C    0.45608013    0.99698998    0.21178999    0.04990000
opls_142-138    C    0.35114997    0.98964991    0.08249988    0.01500000
opls_145-139    C    0.28067010    0.98065007    0.99481982    -0.16150000
opls_700-140    C    0.24850992    0.97993999    0.95042981    0.13910000
opls_700-141    C    0.26731981    0.99200993    0.89829998    -0.04000000
opls_700-142    C    0.32060004    0.98526015    0.89222012    0.14150000
opls_145-143    C    0.35240008    0.98598989    0.93689013    -0.16310000
opls_145-144    C    0.33255019    0.98786997    0.98835982    0.24290000
opls_181-145    C    0.30169982    0.98646000    0.24445010    -0.16680000
opls_148-146    C    0.19928009    0.95381987    0.95938016    -0.35050000
opls_148-147    C    0.34397996    0.96445000    0.84253016    -0.35050000
opls_145-148    C    0.09532984    0.50652984    0.72346982    -0.17380000
opls_166-149    C    0.13052007    0.50896998    0.68077983    0.28340000
opls_700-150    C    0.11271012    0.50781019    0.62717990    -0.04870000
opls_145-151    C    0.06057986    0.50422990    0.61648988    -0.07900000
opls_700-152    C    0.02727991    0.50188008    0.65944986    0.03490000
opls_700-153    C    0.04391987    0.50301002    0.71178999    0.04990000
opls_142-154    C    0.14885003    0.51035009    0.58249988    0.01500000
opls_145-155    C    0.21932990    0.51934993    0.49481982    -0.16140000
opls_700-156    C    0.25149008    0.52006001    0.45042981    0.13920000
opls_700-157    C    0.23268019    0.50799007    0.39829998    -0.04000000
opls_700-158    C    0.17939996    0.51473985    0.39222012    0.14150000
opls_145-159    C    0.14759992    0.51401011    0.43689013    -0.16310000
opls_145-160    C    0.16744981    0.51213003    0.48835982    0.24290000
opls_181-161    C    0.19830018    0.51354000    0.74445010    -0.16680000
opls_148-162    C    0.30071991    0.54618013    0.45938016    -0.35050000
opls_148-163    C    0.15602004    0.53555000    0.34253016    -0.35040000
opls_145-164    C    0.00652984    0.90467016    0.47346982    -0.17380000
opls_166-165    C    0.00896998    0.86947993    0.43077983    0.28340000
opls_700-166    C    0.00781019    0.88728988    0.37717990    -0.04870000
opls_145-167    C    0.00422990    0.93942014    0.36648988    -0.07900000
opls_700-168    C    0.00188008    0.97272009    0.40944986    0.03490000
opls_700-169    C    0.00301002    0.95608013    0.46178999    0.04990000
opls_142-170    C    0.01035009    0.85114997    0.33249988    0.01500000
opls_145-171    C    0.01934993    0.78067010    0.24481982    -0.16150000
opls_700-172    C    0.02006001    0.74850992    0.20042981    0.13910000
opls_700-173    C    0.00799007    0.76731981    0.14829998    -0.04000000
opls_700-174    C    0.01473985    0.82060004    0.14222012    0.14150000
opls_145-175    C    0.01401011    0.85240008    0.18689013    -0.16310000
opls_145-176    C    0.01213003    0.83255019    0.23835982    0.24290000
opls_181-177    C    0.01354000    0.80169982    0.49445010    -0.16670000
opls_148-178    C    0.04618013    0.69928009    0.20938016    -0.35050000
opls_148-179    C    0.03555000    0.84397996    0.09253016    -0.35040000
opls_145-180    C    0.49347016    0.59532984    0.97346982    -0.17380000
opls_166-181    C    0.49103002    0.63052007    0.93077983    0.28340000
opls_700-182    C    0.49218981    0.61271012    0.87717990    -0.04870000
opls_145-183    C    0.49577010    0.56057986    0.86648988    -0.07900000
opls_700-184    C    0.49811992    0.52727991    0.90944986    0.03490000
opls_700-185    C    0.49698998    0.54391987    0.96178999    0.04990000
opls_142-186    C    0.48964991    0.64885003    0.83249988    0.01500000
opls_145-187    C    0.48065007    0.71932990    0.74481982    -0.16120000
opls_700-188    C    0.47993999    0.75149008    0.70042981    0.13910000
opls_700-189    C    0.49200993    0.73268019    0.64829998    -0.04000000
opls_700-190    C    0.48526015    0.67939996    0.64222012    0.14150000
opls_145-191    C    0.48598989    0.64759992    0.68689013    -0.16310000
opls_145-192    C    0.48786997    0.66744981    0.73835982    0.24290000
opls_181-193    C    0.48646000    0.69830018    0.99445010    -0.16680000
opls_148-194    C    0.45381987    0.80071991    0.70938016    -0.35040000
opls_148-195    C    0.46445000    0.65602004    0.59253016    -0.35040000
opls_145-196    C    0.50652984    0.90467016    0.27653018    -0.17380000
opls_166-197    C    0.50896998    0.86947993    0.31922017    0.28340000
opls_700-198    C    0.50781019    0.88728988    0.37282010    -0.04870000
opls_145-199    C    0.50422990    0.93942014    0.38351012    -0.07900000
opls_700-200    C    0.50188008    0.97272009    0.34055014    0.03490000
opls_700-201    C    0.50301002    0.95608013    0.28821001    0.04990000
opls_142-202    C    0.51035009    0.85114997    0.41750012    0.01500000
opls_145-203    C    0.51934993    0.78067010    0.50518018    -0.16150000
opls_700-204    C    0.52006001    0.74850992    0.54957019    0.13910000
opls_700-205    C    0.50799007    0.76731981    0.60170002    -0.04000000
opls_700-206    C    0.51473985    0.82060004    0.60777988    0.14150000
opls_145-207    C    0.51401011    0.85240008    0.56310987    -0.16310000
opls_145-208    C    0.51213003    0.83255019    0.51164018    0.24290000
opls_181-209    C    0.51354000    0.80169982    0.25554990    -0.16680000
opls_148-210    C    0.54618013    0.69928009    0.54061984    -0.35050000
opls_148-211    C    0.53555000    0.84397996    0.65746984    -0.35050000
opls_145-212    C    0.99347016    0.59532984    0.77653018    -0.17380000
opls_166-213    C    0.99103002    0.63052007    0.81922017    0.28340000
opls_700-214    C    0.99218981    0.61271012    0.87282010    -0.04870000
opls_145-215    C    0.99577010    0.56057986    0.88351012    -0.07900000
opls_700-216    C    0.99811992    0.52727991    0.84055014    0.03490000
opls_700-217    C    0.99698998    0.54391987    0.78821001    0.04990000
opls_142-218    C    0.98964991    0.64885003    0.91750012    0.01500000
opls_145-219    C    0.98065007    0.71932990    0.00518018    -0.16150000
opls_700-220    C    0.97993999    0.75149008    0.04957019    0.13910000
opls_700-221    C    0.99200993    0.73268019    0.10170002    -0.04000000
opls_700-222    C    0.98526015    0.67939996    0.10777988    0.14160000
opls_145-223    C    0.98598989    0.64759992    0.06310987    -0.16310000
opls_145-224    C    0.98786997    0.66744981    0.01164018    0.24290000
opls_181-225    C    0.98646000    0.69830018    0.75554990    -0.16670000
opls_148-226    C    0.95381987    0.80071991    0.04061984    -0.35050000
opls_148-227    C    0.96445000    0.65602004    0.15746984    -0.35050000
opls_145-228    C    0.59532984    0.50652984    0.02653018    -0.17380000
opls_166-229    C    0.63052007    0.50896998    0.06922017    0.28360000
opls_700-230    C    0.61271012    0.50781019    0.12282010    -0.04870000
opls_145-231    C    0.56057986    0.50422990    0.13351012    -0.07900000
opls_700-232    C    0.52727991    0.50188008    0.09055014    0.03490000
opls_700-233    C    0.54391987    0.50301002    0.03821001    0.04990000
opls_142-234    C    0.64885003    0.51035009    0.16750012    0.01500000
opls_145-235    C    0.71932990    0.51934993    0.25518018    -0.16150000
opls_700-236    C    0.75149008    0.52006001    0.29957019    0.13910000
opls_700-237    C    0.73268019    0.50799007    0.35170002    -0.04000000
opls_700-238    C    0.67939996    0.51473985    0.35777988    0.14150000
opls_145-239    C    0.64759992    0.51401011    0.31310987    -0.16310000
opls_145-240    C    0.66744981    0.51213003    0.26164018    0.24290000
opls_181-241    C    0.69830018    0.51354000    0.00554990    -0.16660000
opls_148-242    C    0.80071991    0.54618013    0.29061984    -0.35040000
opls_148-243    C    0.65602004    0.53555000    0.40746984    -0.35050000
opls_145-244    C    0.90467016    0.99347016    0.52653018    -0.17380000
opls_166-245    C    0.86947993    0.99103002    0.56922017    0.28340000
opls_700-246    C    0.88728988    0.99218981    0.62282010    -0.04870000
opls_145-247    C    0.93942014    0.99577010    0.63351012    -0.07900000
opls_700-248    C    0.97272009    0.99811992    0.59055014    0.03490000
opls_700-249    C    0.95608013    0.99698998    0.53821001    0.04990000
opls_142-250    C    0.85114997    0.98964991    0.66750012    0.01500000
opls_145-251    C    0.78067010    0.98065007    0.75518018    -0.16150000
opls_700-252    C    0.74850992    0.97993999    0.79957019    0.13910000
opls_700-253    C    0.76731981    0.99200993    0.85170002    -0.04000000
opls_700-254    C    0.82060004    0.98526015    0.85777988    0.14150000
opls_145-255    C    0.85240008    0.98598989    0.81310987    -0.16310000
opls_145-256    C    0.83255019    0.98786997    0.76164018    0.24300000
opls_181-257    C    0.80169982    0.98646000    0.50554990    -0.16680000
opls_148-258    C    0.69928009    0.95381987    0.79061984    -0.35040000
opls_148-259    C    0.84397996    0.96445000    0.90746984    -0.35030000
opls_750-260    N    0.99020014    0.13372018    0.28310995    -0.27470000
opls_750-261    N    0.50979986    0.36627982    0.78310995    -0.27470000
opls_750-262    N    0.86627982    0.49020014    0.53310995    -0.27470000
opls_750-263    N    0.63372018    0.00979986    0.03310995    -0.27470000
opls_750-264    N    0.00979986    0.36627982    0.96689005    -0.27460000
opls_750-265    N    0.49020014    0.13372018    0.46689005    -0.27470000
opls_750-266    N    0.13372018    0.00979986    0.71689005    -0.27460000
opls_750-267    N    0.36627982    0.49020014    0.21689005    -0.27470000
opls_750-268    N    0.36627982    0.99020014    0.03310995    -0.27470000
opls_750-269    N    0.13372018    0.50979986    0.53310995    -0.27470000
opls_750-270    N    0.00979986    0.86627982    0.28310995    -0.27460000
opls_750-271    N    0.49020014    0.63372018    0.78310995    -0.27460000
opls_750-272    N    0.50979986    0.86627982    0.46689005    -0.27470000
opls_750-273    N    0.99020014    0.63372018    0.96689005    -0.27470000
opls_750-274    N    0.63372018    0.50979986    0.21689005    -0.27460000
opls_750-275    N    0.86627982    0.99020014    0.71689005    -0.27470000
opls_179-276    O    0.98745012    0.18292016    0.43978986    -0.16120000
opls_179-277    O    0.51254988    0.31707984    0.93978986    -0.16120000
opls_179-278    O    0.81707984    0.48745012    0.68978986    -0.16120000
opls_179-279    O    0.68292016    0.01254988    0.18978986    -0.16110000
opls_179-280    O    0.01254988    0.31707984    0.81021014    -0.16120000
opls_179-281    O    0.48745012    0.18292016    0.31021014    -0.16120000
opls_179-282    O    0.18292016    0.01254988    0.56021014    -0.16120000
opls_179-283    O    0.31707984    0.48745012    0.06021014    -0.16120000
opls_179-284    O    0.31707984    0.98745012    0.18978986    -0.16120000
opls_179-285    O    0.18292016    0.51254988    0.68978986    -0.16120000
opls_179-286    O    0.01254988    0.81707984    0.43978986    -0.16110000
opls_179-287    O    0.48745012    0.68292016    0.93978986    -0.16120000
opls_179-288    O    0.51254988    0.81707984    0.31021014    -0.16120000
opls_179-289    O    0.98745012    0.68292016    0.81021014    -0.16120000
opls_179-290    O    0.68292016    0.51254988    0.06021014    -0.16120000
opls_179-291    O    0.81707984    0.98745012    0.56021014    -0.16120000
opls_185-292    H    0.96624014    0.16839987    0.51938000    0.06990000
opls_185-293    H    0.96553988    0.23581000    0.49805002    0.06990000
opls_185-294    H    0.02681017    0.20299982    0.50966016    0.06990000
opls_702-295    H    0.92034987    0.29486010    0.23746014    0.10350000
opls_702-296    H    0.93977008    0.31616985    0.16944008    0.10350000
opls_702-297    H    0.98136016    0.32874996    0.22807999    0.10350000
opls_702-298    H    0.97387006    0.11397988    0.09200982    0.10350000
opls_702-299    H    0.98188016    0.17504006    0.05596009    0.10350000
opls_702-300    H    0.92168009    0.16115994    0.09163008    0.10350000
opls_146-301    H    0.99254996    0.10916989    0.51670018    0.05090000
opls_146-302    H    0.99668992    0.04653007    0.32334004    0.05090000
opls_144-303    H    0.98713003    0.19111014    0.34095993    0.03000000
opls_146-304    H    0.97528985    0.23542983    0.28680000    0.05090000
opls_146-305    H    0.98503983    0.10485005    0.18132020    0.05090000
opls_185-306    H    0.53375986    0.33160013    0.01938000    0.06990000
opls_185-307    H    0.53446012    0.26419000    0.99805002    0.06990000
opls_185-308    H    0.47318983    0.29700018    0.00966016    0.06990000
opls_702-309    H    0.57965013    0.20513990    0.73746014    0.10350000
opls_702-310    H    0.56022992    0.18383015    0.66944008    0.10350000
opls_702-311    H    0.51863984    0.17125004    0.72807999    0.10350000
opls_702-312    H    0.52612994    0.38602012    0.59200982    0.10350000
opls_702-313    H    0.51811984    0.32495994    0.55596009    0.10350000
opls_702-314    H    0.57831991    0.33884006    0.59163008    0.10350000
opls_146-315    H    0.50745004    0.39083011    0.01670018    0.05090000
opls_146-316    H    0.50331008    0.45346993    0.82334004    0.05090000
opls_144-317    H    0.51286997    0.30888986    0.84095993    0.03000000
opls_146-318    H    0.52471015    0.26457017    0.78680000    0.05090000
opls_146-319    H    0.51496017    0.39514995    0.68132020    0.05090000
opls_185-320    H    0.83160013    0.46624014    0.76938000    0.06990000
opls_185-321    H    0.76419000    0.46553988    0.74805002    0.06990000
opls_185-322    H    0.79700018    0.52681017    0.75966016    0.06990000
opls_702-323    H    0.70513990    0.42034987    0.48746014    0.10350000
opls_702-324    H    0.68383015    0.43977008    0.41944008    0.10350000
opls_702-325    H    0.67125004    0.48136016    0.47807999    0.10350000
opls_702-326    H    0.88602012    0.47387006    0.34200982    0.10350000
opls_702-327    H    0.82495994    0.48188016    0.30596009    0.10360000
opls_702-328    H    0.83884006    0.42168009    0.34163008    0.10350000
opls_146-329    H    0.89083011    0.49254996    0.76670018    0.05090000
opls_146-330    H    0.95346993    0.49668992    0.57334004    0.05100000
opls_144-331    H    0.80888986    0.48713003    0.59095993    0.03000000
opls_146-332    H    0.76457017    0.47528985    0.53680000    0.05090000
opls_146-333    H    0.89514995    0.48503983    0.43132020    0.05100000
opls_185-334    H    0.66839987    0.03375986    0.26938000    0.06990000
opls_185-335    H    0.73581000    0.03446012    0.24805002    0.06990000
opls_185-336    H    0.70299982    0.97318983    0.25966016    0.06990000
opls_702-337    H    0.79486010    0.07965013    0.98746014    0.10350000
opls_702-338    H    0.81616985    0.06022992    0.91944008    0.10350000
opls_702-339    H    0.82874996    0.01863984    0.97807999    0.10350000
opls_702-340    H    0.61397988    0.02612994    0.84200982    0.10350000
opls_702-341    H    0.67504006    0.01811984    0.80596009    0.10360000
opls_702-342    H    0.66115994    0.07831991    0.84163008    0.10350000
opls_146-343    H    0.60916989    0.00745004    0.26670018    0.05090000
opls_146-344    H    0.54653007    0.00331008    0.07334004    0.05090000
opls_144-345    H    0.69111014    0.01286997    0.09095993    0.03000000
opls_146-346    H    0.73542983    0.02471015    0.03680000    0.05090000
opls_146-347    H    0.60485005    0.01496017    0.93132020    0.05090000
opls_185-348    H    0.03375986    0.33160013    0.73062000    0.06990000
opls_185-349    H    0.03446012    0.26419000    0.75194998    0.07000000
opls_185-350    H    0.97318983    0.29700018    0.74033984    0.06990000
opls_702-351    H    0.07965013    0.20513990    0.01253986    0.10350000
opls_702-352    H    0.06022992    0.18383015    0.08055992    0.10350000
opls_702-353    H    0.01863984    0.17125004    0.02192001    0.10350000
opls_702-354    H    0.02612994    0.38602012    0.15799018    0.10350000
opls_702-355    H    0.01811984    0.32495994    0.19403991    0.10350000
opls_702-356    H    0.07831991    0.33884006    0.15836992    0.10350000
opls_146-357    H    0.00745004    0.39083011    0.73329982    0.05090000
opls_146-358    H    0.00331008    0.45346993    0.92665996    0.05090000
opls_144-359    H    0.01286997    0.30888986    0.90904007    0.03000000
opls_146-360    H    0.02471015    0.26457017    0.96320000    0.05090000
opls_146-361    H    0.01496017    0.39514995    0.06867980    0.05090000
opls_185-362    H    0.46624014    0.16839987    0.23062000    0.06990000
opls_185-363    H    0.46553988    0.23581000    0.25194998    0.06990000
opls_185-364    H    0.52681017    0.20299982    0.24033984    0.06990000
opls_702-365    H    0.42034987    0.29486010    0.51253986    0.10350000
opls_702-366    H    0.43977008    0.31616985    0.58055992    0.10350000
opls_702-367    H    0.48136016    0.32874996    0.52192001    0.10350000
opls_702-368    H    0.47387006    0.11397988    0.65799018    0.10350000
opls_702-369    H    0.48188016    0.17504006    0.69403991    0.10350000
opls_702-370    H    0.42168009    0.16115994    0.65836992    0.10350000
opls_146-371    H    0.49254996    0.10916989    0.23329982    0.05090000
opls_146-372    H    0.49668992    0.04653007    0.42665996    0.05090000
opls_144-373    H    0.48713003    0.19111014    0.40904007    0.03000000
opls_146-374    H    0.47528985    0.23542983    0.46320000    0.05090000
opls_146-375    H    0.48503983    0.10485005    0.56867980    0.05090000
opls_185-376    H    0.16839987    0.03375986    0.48062000    0.06990000
opls_185-377    H    0.23581000    0.03446012    0.50194998    0.07000000
opls_185-378    H    0.20299982    0.97318983    0.49033984    0.06990000
opls_702-379    H    0.29486010    0.07965013    0.76253986    0.10350000
opls_702-380    H    0.31616985    0.06022992    0.83055992    0.10350000
opls_702-381    H    0.32874996    0.01863984    0.77192001    0.10350000
opls_702-382    H    0.11397988    0.02612994    0.90799018    0.10350000
opls_702-383    H    0.17504006    0.01811984    0.94403991    0.10350000
opls_702-384    H    0.16115994    0.07831991    0.90836992    0.10350000
opls_146-385    H    0.10916989    0.00745004    0.48329982    0.05090000
opls_146-386    H    0.04653007    0.00331008    0.67665996    0.05090000
opls_144-387    H    0.19111014    0.01286997    0.65904007    0.03000000
opls_146-388    H    0.23542983    0.02471015    0.71320000    0.05090000
opls_146-389    H    0.10485005    0.01496017    0.81867980    0.05090000
opls_185-390    H    0.33160013    0.46624014    0.98062000    0.06990000
opls_185-391    H    0.26419000    0.46553988    0.00194998    0.06990000
opls_185-392    H    0.29700018    0.52681017    0.99033984    0.06990000
opls_702-393    H    0.20513990    0.42034987    0.26253986    0.10350000
opls_702-394    H    0.18383015    0.43977008    0.33055992    0.10350000
opls_702-395    H    0.17125004    0.48136016    0.27192001    0.10350000
opls_702-396    H    0.38602012    0.47387006    0.40799018    0.10350000
opls_702-397    H    0.32495994    0.48188016    0.44403991    0.10350000
opls_702-398    H    0.33884006    0.42168009    0.40836992    0.10350000
opls_146-399    H    0.39083011    0.49254996    0.98329982    0.05090000
opls_146-400    H    0.45346993    0.49668992    0.17665996    0.05090000
opls_144-401    H    0.30888986    0.48713003    0.15904007    0.03000000
opls_146-402    H    0.26457017    0.47528985    0.21320000    0.05090000
opls_146-403    H    0.39514995    0.48503983    0.31867980    0.05090000
opls_185-404    H    0.33160013    0.96624014    0.26938000    0.06990000
opls_185-405    H    0.26419000    0.96553988    0.24805002    0.06990000
opls_185-406    H    0.29700018    0.02681017    0.25966016    0.06990000
opls_702-407    H    0.20513990    0.92034987    0.98746014    0.10350000
opls_702-408    H    0.18383015    0.93977008    0.91944008    0.10360000
opls_702-409    H    0.17125004    0.98136016    0.97807999    0.10350000
opls_702-410    H    0.38602012    0.97387006    0.84200982    0.10350000
opls_702-411    H    0.32495994    0.98188016    0.80596009    0.10350000
opls_702-412    H    0.33884006    0.92168009    0.84163008    0.10350000
opls_146-413    H    0.39083011    0.99254996    0.26670018    0.05090000
opls_146-414    H    0.45346993    0.99668992    0.07334004    0.05090000
opls_144-415    H    0.30888986    0.98713003    0.09095993    0.03000000
opls_146-416    H    0.26457017    0.97528985    0.03680000    0.05090000
opls_146-417    H    0.39514995    0.98503983    0.93132020    0.05090000
opls_185-418    H    0.16839987    0.53375986    0.76938000    0.06990000
opls_185-419    H    0.23581000    0.53446012    0.74805002    0.06990000
opls_185-420    H    0.20299982    0.47318983    0.75966016    0.06990000
opls_702-421    H    0.29486010    0.57965013    0.48746014    0.10350000
opls_702-422    H    0.31616985    0.56022992    0.41944008    0.10350000
opls_702-423    H    0.32874996    0.51863984    0.47807999    0.10350000
opls_702-424    H    0.11397988    0.52612994    0.34200982    0.10360000
opls_702-425    H    0.17504006    0.51811984    0.30596009    0.10350000
opls_702-426    H    0.16115994    0.57831991    0.34163008    0.10350000
opls_146-427    H    0.10916989    0.50745004    0.76670018    0.05090000
opls_146-428    H    0.04653007    0.50331008    0.57334004    0.05090000
opls_144-429    H    0.19111014    0.51286997    0.59095993    0.03000000
opls_146-430    H    0.23542983    0.52471015    0.53680000    0.05090000
opls_146-431    H    0.10485005    0.51496017    0.43132020    0.05090000
opls_185-432    H    0.03375986    0.83160013    0.51938000    0.06990000
opls_185-433    H    0.03446012    0.76419000    0.49805002    0.06990000
opls_185-434    H    0.97318983    0.79700018    0.50966016    0.06990000
opls_702-435    H    0.07965013    0.70513990    0.23746014    0.10350000
opls_702-436    H    0.06022992    0.68383015    0.16944008    0.10350000
opls_702-437    H    0.01863984    0.67125004    0.22807999    0.10350000
opls_702-438    H    0.02612994    0.88602012    0.09200982    0.10350000
opls_702-439    H    0.01811984    0.82495994    0.05596009    0.10350000
opls_702-440    H    0.07831991    0.83884006    0.09163008    0.10350000
opls_146-441    H    0.00745004    0.89083011    0.51670018    0.05090000
opls_146-442    H    0.00331008    0.95346993    0.32334004    0.05090000
opls_144-443    H    0.01286997    0.80888986    0.34095993    0.03000000
opls_146-444    H    0.02471015    0.76457017    0.28680000    0.05090000
opls_146-445    H    0.01496017    0.89514995    0.18132020    0.05090000
opls_185-446    H    0.46624014    0.66839987    0.01938000    0.06990000
opls_185-447    H    0.46553988    0.73581000    0.99805002    0.06990000
opls_185-448    H    0.52681017    0.70299982    0.00966016    0.06990000
opls_702-449    H    0.42034987    0.79486010    0.73746014    0.10350000
opls_702-450    H    0.43977008    0.81616985    0.66944008    0.10350000
opls_702-451    H    0.48136016    0.82874996    0.72807999    0.10350000
opls_702-452    H    0.47387006    0.61397988    0.59200982    0.10350000
opls_702-453    H    0.48188016    0.67504006    0.55596009    0.10360000
opls_702-454    H    0.42168009    0.66115994    0.59163008    0.10350000
opls_146-455    H    0.49254996    0.60916989    0.01670018    0.05090000
opls_146-456    H    0.49668992    0.54653007    0.82334004    0.05090000
opls_144-457    H    0.48713003    0.69111014    0.84095993    0.03000000
opls_146-458    H    0.47528985    0.73542983    0.78680000    0.05090000
opls_146-459    H    0.48503983    0.60485005    0.68132020    0.05090000
opls_185-460    H    0.53375986    0.83160013    0.23062000    0.06990000
opls_185-461    H    0.53446012    0.76419000    0.25194998    0.06990000
opls_185-462    H    0.47318983    0.79700018    0.24033984    0.06990000
opls_702-463    H    0.57965013    0.70513990    0.51253986    0.10350000
opls_702-464    H    0.56022992    0.68383015    0.58055992    0.10350000
opls_702-465    H    0.51863984    0.67125004    0.52192001    0.10350000
opls_702-466    H    0.52612994    0.88602012    0.65799018    0.10350000
opls_702-467    H    0.51811984    0.82495994    0.69403991    0.10360000
opls_702-468    H    0.57831991    0.83884006    0.65836992    0.10360000
opls_146-469    H    0.50745004    0.89083011    0.23329982    0.05090000
opls_146-470    H    0.50331008    0.95346993    0.42665996    0.05090000
opls_144-471    H    0.51286997    0.80888986    0.40904007    0.03000000
opls_146-472    H    0.52471015    0.76457017    0.46320000    0.05090000
opls_146-473    H    0.51496017    0.89514995    0.56867980    0.05090000
opls_185-474    H    0.96624014    0.66839987    0.73062000    0.06990000
opls_185-475    H    0.96553988    0.73581000    0.75194998    0.06990000
opls_185-476    H    0.02681017    0.70299982    0.74033984    0.06990000
opls_702-477    H    0.92034987    0.79486010    0.01253986    0.10350000
opls_702-478    H    0.93977008    0.81616985    0.08055992    0.10350000
opls_702-479    H    0.98136016    0.82874996    0.02192001    0.10350000
opls_702-480    H    0.97387006    0.61397988    0.15799018    0.10350000
opls_702-481    H    0.98188016    0.67504006    0.19403991    0.10350000
opls_702-482    H    0.92168009    0.66115994    0.15836992    0.10350000
opls_146-483    H    0.99254996    0.60916989    0.73329982    0.05090000
opls_146-484    H    0.99668992    0.54653007    0.92665996    0.05100000
opls_144-485    H    0.98713003    0.69111014    0.90904007    0.03000000
opls_146-486    H    0.97528985    0.73542983    0.96320000    0.05090000
opls_146-487    H    0.98503983    0.60485005    0.06867980    0.05090000
opls_185-488    H    0.66839987    0.53375986    0.98062000    0.06990000
opls_185-489    H    0.73581000    0.53446012    0.00194998    0.06990000
opls_185-490    H    0.70299982    0.47318983    0.99033984    0.06990000
opls_702-491    H    0.79486010    0.57965013    0.26253986    0.10350000
opls_702-492    H    0.81616985    0.56022992    0.33055992    0.10350000
opls_702-493    H    0.82874996    0.51863984    0.27192001    0.10350000
opls_702-494    H    0.61397988    0.52612994    0.40799018    0.10350000
opls_702-495    H    0.67504006    0.51811984    0.44403991    0.10350000
opls_702-496    H    0.66115994    0.57831991    0.40836992    0.10360000
opls_146-497    H    0.60916989    0.50745004    0.98329982    0.05090000
opls_146-498    H    0.54653007    0.50331008    0.17665996    0.05090000
opls_144-499    H    0.69111014    0.51286997    0.15904007    0.03000000
opls_146-500    H    0.73542983    0.52471015    0.21320000    0.05090000
opls_146-501    H    0.60485005    0.51496017    0.31867980    0.05090000
opls_185-502    H    0.83160013    0.96624014    0.48062000    0.06990000
opls_185-503    H    0.76419000    0.96553988    0.50194998    0.06990000
opls_185-504    H    0.79700018    0.02681017    0.49033984    0.06990000
opls_702-505    H    0.70513990    0.92034987    0.76253986    0.10350000
opls_702-506    H    0.68383015    0.93977008    0.83055992    0.10350000
opls_702-507    H    0.67125004    0.98136016    0.77192001    0.10350000
opls_702-508    H    0.88602012    0.97387006    0.90799018    0.10350000
opls_702-509    H    0.82495994    0.98188016    0.94403991    0.10350000
opls_702-510    H    0.83884006    0.92168009    0.90836992    0.10350000
opls_146-511    H    0.89083011    0.99254996    0.48329982    0.05090000
opls_146-512    H    0.95346993    0.99668992    0.67665996    0.05090000
opls_144-513    H    0.80888986    0.98713003    0.65904007    0.03000000
opls_146-514    H    0.76457017    0.97528985    0.71320000    0.05090000
opls_146-515    H    0.89514995    0.98503983    0.81867980    0.05090000
