#======================================================================
# Crystal Data Generated By AuToFF
#----------------------------------------------------------------------

data_AuToFF_phase_1

_cell_length_a                         37.5464
_cell_length_b                         37.5464
_cell_length_c                         7.3308
_cell_angle_alpha                      90.00
_cell_angle_beta                       90.00
_cell_angle_gamma                      120.00
_symmetry_space_group_name_H-M_alt     'P 1'
_symmetry_space_group_IT_number        1

loop_
_space_group_symop_operation_xyz
   'x, y, z'

loop_
   _atom_site_label
   _atom_site_type_symbol
   _atom_site_fract_x
   _atom_site_fract_y
   _atom_site_fract_z
   _atom_site_charge
opls_700-0    C    0.48001995    0.95712991    0.32651962    -0.04050000
opls_145-1    C    0.46529009    0.98465993    0.32720031    -0.19470000
opls_166-2    C    0.49129991    0.02696999    0.29860997    0.27650000
opls_142-3    C    0.44976001    0.91272980    0.34380968    0.07200000
opls_145-4    C    0.43367997    0.84116995    0.34697032    0.19480000
opls_145-5    C    0.39109993    0.82250999    0.31130027    -0.17190000
opls_523-6    C    0.36628007    0.77976998    0.31593960    -0.12130000
opls_700-7    C    0.38342981    0.75474980    0.35244039    -0.00160000
opls_523-8    C    0.42587998    0.77334979    0.38522944    -0.11720000
opls_145-9    C    0.45063993    0.81608979    0.38301959    -0.16470000
opls_531-10    C    0.35739977    0.70952979    0.35404049    0.33720000
opls_465-11    C    0.60574988    0.55667001    0.37981939    0.57080000
opls_275-12    C    0.64856992    0.58596008    0.31112975    -0.10110000
opls_700-13    C    0.65623992    0.62996008    0.29595951    0.06810000
opls_145-14    C    0.62458992    0.63635997    0.23070061    -0.11510000
opls_145-15    C    0.63107012    0.67588004    0.20396955    -0.08480000
opls_145-16    C    0.66977984    0.70998987    0.23594969    -0.08430000
opls_145-17    C    0.70192000    0.70452981    0.29667021    -0.08760000
opls_145-18    C    0.69533991    0.66493993    0.32756043    -0.12760000
opls_135-19    C    0.68007003    0.58172987    0.42914007    -0.39960000
opls_700-20    C    0.53601998    0.04301987    0.27319938    -0.03770000
opls_145-21    C    0.55090994    0.01553997    0.27379004    -0.22300000
opls_166-22    C    0.52471987    0.97338983    0.30136956    0.27180000
opls_142-23    C    0.56538013    0.08745011    0.25096033    0.07220000
opls_145-24    C    0.57764014    0.15813009    0.25900038    0.19790000
opls_145-25    C    0.62026986    0.17913996    0.22458940    -0.16470000
opls_523-26    C    0.64212002    0.22207002    0.21523981    -0.12770000
opls_700-27    C    0.62194003    0.24483995    0.23990015    0.00030000
opls_523-28    C    0.57937004    0.22367999    0.27296066    -0.12530000
opls_145-29    C    0.55761005    0.18076992    0.28295002    -0.16260000
opls_531-30    C    0.64521998    0.29030998    0.23452011    0.33870000
opls_465-31    C    0.38370009    0.43339000    0.43769984    0.54070000
opls_275-32    C    0.33907996    0.40130993    0.40761991    -0.09950000
opls_700-33    C    0.32897996    0.35812984    0.46725050    0.05690000
opls_145-34    C    0.35988003    0.34698983    0.48020953    -0.11950000
opls_145-35    C    0.34973998    0.30683993    0.52623043    -0.09130000
opls_145-36    C    0.30872002    0.27696000    0.55611939    -0.09000000
opls_145-37    C    0.27786004    0.28713986    0.53908032    -0.08410000
opls_145-38    C    0.28768999    0.32708987    0.49398019    -0.12440000
opls_135-39    C    0.31201004    0.41566988    0.50354941    -0.39960000
opls_700-40    C    0.15351003    0.29108990    0.77161019    -0.03760000
opls_145-41    C    0.14143983    0.31966986    0.72798058    -0.20440000
opls_166-42    C    0.16916005    0.36193995    0.73536995    0.27320000
opls_142-43    C    0.12189997    0.24687986    0.76776068    0.07240000
opls_145-44    C    0.10345006    0.17464988    0.80311017    0.19430000
opls_145-45    C    0.06066000    0.15660008    0.77744039    -0.17020000
opls_523-46    C    0.03523995    0.11388006    0.78358979    -0.12780000
opls_700-47    C    0.05187990    0.08815991    0.81536940    0.00070000
opls_523-48    C    0.09455996    0.10617988    0.84020980    -0.12760000
opls_145-49    C    0.11994995    0.14895003    0.83489933    -0.16370000
opls_531-50    C    0.02490009    0.04287009    0.82064986    0.33880000
opls_465-51    C    0.26425991    0.87697986    0.75794047    0.56790000
opls_275-52    C    0.30198982    0.90553983    0.65075026    -0.10480000
opls_700-53    C    0.32031992    0.95009002    0.71454957    0.06410000
opls_145-54    C    0.29499989    0.96790978    0.71726960    -0.12760000
opls_145-55    C    0.31016994    0.00825990    0.77723986    -0.08140000
opls_145-56    C    0.35110002    0.03185987    0.83195968    -0.08010000
opls_145-57    C    0.37693997    0.01515986    0.82609947    -0.09260000
opls_145-58    C    0.36174996    0.97449974    0.76946036    -0.12820000
opls_135-59    C    0.33177994    0.88879000    0.65175970    -0.39960000
opls_700-60    C    0.21227005    0.37714009    0.79462951    -0.03760000
opls_145-61    C    0.22512009    0.34858996    0.82983985    -0.23750000
opls_166-62    C    0.19723001    0.30613997    0.82155972    0.27740000
opls_142-63    C    0.24135000    0.42161985    0.81988050    0.07220000
opls_145-64    C    0.25116992    0.49149991    0.83382032    0.19620000
opls_145-65    C    0.29443986    0.51433996    0.82437933    -0.17440000
opls_523-66    C    0.31501989    0.55737981    0.83252987    -0.12730000
opls_700-67    C    0.29275999    0.57821008    0.84785972    0.00030000
opls_523-68    C    0.24958980    0.55510986    0.85867027    -0.11940000
opls_145-69    C    0.22918991    0.51228006    0.85180062    -0.15920000
opls_531-70    C    0.31402003    0.62370995    0.85078027    0.33870000
opls_465-71    C    0.04653982    0.76689976    0.99528019    0.57080000
opls_275-72    C    0.00012980    0.74480981    0.99867954    -0.10110000
opls_700-73    C    0.98105986    0.69833996    0.02857942    0.05630000
opls_145-74    C    0.00050994    0.67724982    0.95747940    -0.11950000
opls_145-75    C    0.98171004    0.63438988    0.96861052    -0.09610000
opls_145-76    C    0.94300987    0.61177987    0.05023053    -0.09350000
opls_145-77    C    0.92304988    0.63186990    0.12004965    -0.09450000
opls_145-78    C    0.94174990    0.67472984    0.10925956    -0.12460000
opls_135-79    C    0.98597015    0.76632005    0.13472063    -0.39960000
opls_700-80    C    0.04287005    0.52288986    0.32651962    -0.04050000
opls_145-81    C    0.01534000    0.48062993    0.32720031    -0.19470000
opls_166-82    C    0.97302991    0.46433002    0.29860997    0.27650000
opls_142-83    C    0.08726989    0.53702992    0.34380968    0.07200000
opls_145-84    C    0.15883014    0.59251006    0.34697032    0.19480000
opls_145-85    C    0.17749006    0.56858994    0.31130027    -0.17190000
opls_523-86    C    0.22022987    0.58650996    0.31593960    -0.12130000
opls_700-87    C    0.24524991    0.62867979    0.35244039    -0.00160000
opls_523-88    C    0.22665002    0.65252979    0.38522944    -0.11720000
opls_145-89    C    0.18390978    0.63454980    0.38301959    -0.16470000
opls_531-90    C    0.29046998    0.64786995    0.35404049    0.33700000
opls_465-91    C    0.44333005    0.04907993    0.37981939    0.57080000
opls_275-92    C    0.41404003    0.06261014    0.31112975    -0.10110000
opls_700-93    C    0.37003993    0.02627987    0.29595951    0.06810000
opls_145-94    C    0.36363983    0.98822985    0.23070061    -0.11510000
opls_145-95    C    0.32412007    0.95518995    0.20396955    -0.08480000
opls_145-96    C    0.29000986    0.95978982    0.23594969    -0.08430000
opls_145-97    C    0.29546988    0.99738991    0.29667021    -0.08760000
opls_145-98    C    0.33505995    0.03039998    0.32756043    -0.12760000
opls_135-99    C    0.41827014    0.09834009    0.42914007    -0.39960000
opls_700-100    C    0.95698015    0.49300009    0.27319938    -0.03770000
opls_145-101    C    0.98445989    0.53536982    0.27379004    -0.22300000
opls_166-102    C    0.02660991    0.55132989    0.30136956    0.27180000
opls_142-103    C    0.91254997    0.47793004    0.25096033    0.07220000
opls_145-104    C    0.84186984    0.41950982    0.25900038    0.19790000
opls_145-105    C    0.82086003    0.44112985    0.22458940    -0.16470000
opls_523-106    C    0.77792997    0.42004986    0.21523981    -0.12770000
opls_700-107    C    0.75516002    0.37709980    0.23990015    0.00030000
opls_523-108    C    0.77631986    0.35568982    0.27296066    -0.12530000
opls_145-109    C    0.81922984    0.37683993    0.28295002    -0.16260000
opls_531-110    C    0.70969000    0.35490990    0.23452011    0.33860000
opls_465-111    C    0.56661006    0.95030991    0.43769984    0.54070000
opls_275-112    C    0.59868998    0.93776998    0.40761991    -0.09960000
opls_700-113    C    0.64187002    0.97084986    0.46725050    0.05690000
opls_145-114    C    0.65301000    0.01288991    0.48020953    -0.11950000
opls_145-115    C    0.69315990    0.04289993    0.52623043    -0.09130000
opls_145-116    C    0.72303990    0.03175992    0.55611939    -0.09000000
opls_145-117    C    0.71285994    0.99071999    0.53908032    -0.08410000
opls_145-118    C    0.67290988    0.96059987    0.49398019    -0.12440000
opls_135-119    C    0.58432995    0.89633979    0.50354941    -0.39960000
opls_700-120    C    0.70891013    0.86242002    0.77161019    -0.03760000
opls_145-121    C    0.68033003    0.82177005    0.72798058    -0.20440000
opls_166-122    C    0.63805993    0.80722005    0.73536995    0.27310000
opls_142-123    C    0.75311998    0.87501991    0.76776068    0.07240000
opls_145-124    C    0.82534991    0.92879997    0.80311017    0.19430000
opls_145-125    C    0.84339985    0.90405995    0.77744039    -0.17020000
opls_523-126    C    0.88611998    0.92135998    0.78358979    -0.12770000
opls_700-127    C    0.91183990    0.96371986    0.81536940    0.00070000
opls_523-128    C    0.89382002    0.98837992    0.84020980    -0.12760000
opls_145-129    C    0.85105006    0.97099994    0.83489933    -0.16370000
opls_531-130    C    0.95712992    0.98202985    0.82064986    0.33880000
opls_465-131    C    0.12301990    0.38727998    0.75794047    0.56790000
opls_275-132    C    0.09446000    0.39644989    0.65075026    -0.10480000
opls_700-133    C    0.04991002    0.37022998    0.71454957    0.06410000
opls_145-134    C    0.03208999    0.32708987    0.71726960    -0.12760000
opls_145-135    C    0.99174004    0.30191007    0.77723986    -0.08140000
opls_145-136    C    0.96814009    0.31923992    0.83195968    -0.08010000
opls_145-137    C    0.98484006    0.36178003    0.82609947    -0.09270000
opls_145-138    C    0.02549988    0.38724984    0.76946036    -0.12820000
opls_135-139    C    0.11121005    0.44298985    0.65175970    -0.39960000
opls_700-140    C    0.62285999    0.83512988    0.79462951    -0.03760000
opls_145-141    C    0.65141003    0.87652993    0.82983985    -0.23750000
opls_166-142    C    0.69385977    0.89108978    0.82155972    0.27740000
opls_142-143    C    0.57837987    0.81972983    0.81988050    0.07220000
opls_145-144    C    0.50849997    0.75966981    0.83382032    0.19620000
opls_145-145    C    0.48565995    0.78009997    0.82437933    -0.17440000
opls_523-146    C    0.44262002    0.75764005    0.83252987    -0.12730000
opls_700-147    C    0.42179014    0.71455007    0.84785972    0.00030000
opls_523-148    C    0.44489012    0.69448003    0.85867027    -0.11940000
opls_145-149    C    0.48772003    0.71690982    0.85180062    -0.15920000
opls_531-150    C    0.37628997    0.69030980    0.85078027    0.33860000
opls_465-151    C    0.23310000    0.27963990    0.99528019    0.57080000
opls_275-152    C    0.25518992    0.25531997    0.99867954    -0.10110000
opls_700-153    C    0.30166001    0.28271990    0.02857942    0.05630000
opls_145-154    C    0.32275015    0.32326008    0.95747940    -0.11950000
opls_145-155    C    0.36560987    0.34731982    0.96861052    -0.09610000
opls_145-156    C    0.38822008    0.33122997    0.05023053    -0.09350000
opls_145-157    C    0.36813012    0.29118001    0.12004965    -0.09450000
opls_145-158    C    0.32527007    0.26702001    0.10925956    -0.12460000
opls_135-159    C    0.23368001    0.21965000    0.13472063    -0.39960000
opls_700-160    C    0.47710985    0.51997992    0.32651962    -0.04050000
opls_145-161    C    0.51937003    0.53470984    0.32720031    -0.19470000
opls_166-162    C    0.53566991    0.50869999    0.29860997    0.27650000
opls_142-163    C    0.46296995    0.55023997    0.34380968    0.07200000
opls_145-164    C    0.40748989    0.56631999    0.34697032    0.19480000
opls_145-165    C    0.43141001    0.60890007    0.31130027    -0.17190000
opls_523-166    C    0.41349006    0.63372005    0.31593960    -0.12130000
opls_700-167    C    0.37131997    0.61656980    0.35244039    -0.00160000
opls_523-168    C    0.34746996    0.57411981    0.38522944    -0.11720000
opls_145-169    C    0.36544998    0.54935979    0.38301959    -0.16470000
opls_531-170    C    0.35213010    0.64259995    0.35404049    0.33700000
opls_465-171    C    0.95092007    0.39425006    0.37981939    0.57090000
opls_275-172    C    0.93738993    0.35143009    0.31112975    -0.10110000
opls_700-173    C    0.97372015    0.34376005    0.29595951    0.06810000
opls_145-174    C    0.01176983    0.37540987    0.23070061    -0.11510000
opls_145-175    C    0.04481007    0.36893001    0.20396955    -0.08480000
opls_145-176    C    0.04020988    0.33022001    0.23594969    -0.08430000
opls_145-177    C    0.00260997    0.29807997    0.29667021    -0.08760000
opls_145-178    C    0.96960014    0.30466009    0.32756043    -0.12760000
opls_135-179    C    0.90166010    0.31993004    0.42914007    -0.39960000
opls_700-180    C    0.50700014    0.46398004    0.27319938    -0.03770000
opls_145-181    C    0.46463002    0.44908990    0.27379004    -0.22300000
opls_166-182    C    0.44867007    0.47527997    0.30136956    0.27190000
opls_142-183    C    0.52206990    0.43461985    0.25096033    0.07220000
opls_145-184    C    0.58049002    0.42236010    0.25900038    0.19790000
opls_145-185    C    0.55886996    0.37972988    0.22458940    -0.16470000
opls_523-186    C    0.57994986    0.35787981    0.21523981    -0.12770000
opls_700-187    C    0.62290006    0.37805994    0.23990015    0.00030000
opls_523-188    C    0.64430994    0.42062988    0.27296066    -0.12530000
opls_145-189    C    0.62315996    0.44238984    0.28295002    -0.16260000
opls_531-190    C    0.64508987    0.35477981    0.23452011    0.33860000
opls_465-191    C    0.04968996    0.61629978    0.43769984    0.54070000
opls_275-192    C    0.06222991    0.66091978    0.40761991    -0.09960000
opls_700-193    C    0.02914987    0.67101999    0.46725050    0.05690000
opls_145-194    C    0.98711008    0.64011995    0.48020953    -0.11950000
opls_145-195    C    0.95709996    0.65025984    0.52623043    -0.09130000
opls_145-196    C    0.96823992    0.69127978    0.55611939    -0.09000000
opls_145-197    C    0.00927987    0.72213984    0.53908032    -0.08410000
opls_145-198    C    0.03939997    0.71230995    0.49398019    -0.12430000
opls_135-199    C    0.10366012    0.68799003    0.50354941    -0.39960000
opls_700-200    C    0.13757995    0.84648977    0.77161019    -0.03760000
opls_145-201    C    0.17822999    0.85855978    0.72798058    -0.20440000
opls_166-202    C    0.19278002    0.83084001    0.73536995    0.27320000
opls_142-203    C    0.12497990    0.87809992    0.76776068    0.07240000
opls_145-204    C    0.07119989    0.89654984    0.80311017    0.19430000
opls_145-205    C    0.09593988    0.93933997    0.77744039    -0.17020000
opls_523-206    C    0.07864008    0.96475996    0.78358979    -0.12780000
opls_700-207    C    0.03628004    0.94811992    0.81536940    0.00070000
opls_523-208    C    0.01161986    0.90543988    0.84020980    -0.12760000
opls_145-209    C    0.02899999    0.88005003    0.83489933    -0.16360000
opls_531-210    C    0.01796984    0.97509975    0.82064986    0.33890000
opls_465-211    C    0.61272003    0.73573985    0.75794047    0.56790000
opls_275-212    C    0.60355003    0.69800997    0.65075026    -0.10480000
opls_700-213    C    0.62977006    0.67968000    0.71454957    0.06410000
opls_145-214    C    0.67290997    0.70500004    0.71726960    -0.12760000
opls_145-215    C    0.69809002    0.68983004    0.77723986    -0.08140000
opls_145-216    C    0.68076001    0.64889990    0.83195968    -0.08010000
opls_145-217    C    0.63821981    0.62305981    0.82609947    -0.09270000
opls_145-218    C    0.61274986    0.63824980    0.76946036    -0.12810000
opls_135-219    C    0.55700985    0.66821984    0.65175970    -0.39950000
opls_700-220    C    0.16486996    0.78773003    0.79462951    -0.03760000
opls_145-221    C    0.12346998    0.77487980    0.82983985    -0.23750000
opls_166-222    C    0.10891006    0.80276995    0.82155972    0.27740000
opls_142-223    C    0.18026997    0.75865001    0.81988050    0.07220000
opls_145-224    C    0.24032996    0.74882997    0.83382032    0.19620000
opls_145-225    C    0.21989992    0.70556007    0.82437933    -0.17440000
opls_523-226    C    0.24235994    0.68497983    0.83252987    -0.12730000
opls_700-227    C    0.28544987    0.70723985    0.84785972    0.00030000
opls_523-228    C    0.30551992    0.75040980    0.85867027    -0.11940000
opls_145-229    C    0.28308991    0.77080982    0.85180062    -0.15920000
opls_531-230    C    0.30968984    0.68597995    0.85078027    0.33860000
opls_465-231    C    0.72036003    0.95346004    0.99528019    0.57080000
opls_275-232    C    0.74467986    0.99986991    0.99867954    -0.10110000
opls_700-233    C    0.71728014    0.01894013    0.02857942    0.05630000
opls_145-234    C    0.67674003    0.99948979    0.95747940    -0.11950000
opls_145-235    C    0.65267993    0.01828999    0.96861052    -0.09610000
opls_145-236    C    0.66876989    0.05698985    0.05023053    -0.09350000
opls_145-237    C    0.70882001    0.07695009    0.12004965    -0.09450000
opls_145-238    C    0.73297988    0.05824984    0.10925956    -0.12460000
opls_135-239    C    0.78035010    0.01402996    0.13472063    -0.39960000
opls_750-240    N    0.46094006    0.88499988    0.34056038    -0.32710000
opls_520-241    N    0.31592989    0.69169988    0.35416053    -0.39530000
opls_750-242    N    0.55325003    0.11413009    0.27180935    -0.33100000
opls_520-243    N    0.68686993    0.31086992    0.23464015    -0.39540000
opls_750-244    N    0.13119993    0.21844998    0.80044061    -0.32870000
opls_520-245    N    0.98343012    0.02580011    0.82082037    -0.39430000
opls_750-246    N    0.22792001    0.44751007    0.81744966    -0.33810000
opls_520-247    N    0.35561007    0.64625998    0.85063022    -0.39490000
opls_750-248    N    0.11499993    0.57593983    0.34056038    -0.32700000
opls_520-249    N    0.30829999    0.62423000    0.35416053    -0.39520000
opls_750-250    N    0.88586999    0.43912008    0.27180935    -0.33100000
opls_520-251    N    0.68913009    0.37600004    0.23464015    -0.39550000
opls_750-252    N    0.78154988    0.91274979    0.80044061    -0.32870000
opls_520-253    N    0.97419989    0.95762996    0.82082037    -0.39420000
opls_750-254    N    0.55249005    0.78040997    0.81744966    -0.33810000
opls_520-255    N    0.35373983    0.70934988    0.85063022    -0.39490000
opls_750-256    N    0.42406012    0.53905999    0.34056038    -0.32710000
opls_520-257    N    0.37576997    0.68406982    0.35416053    -0.39530000
opls_750-258    N    0.56087998    0.44674983    0.27180935    -0.33100000
opls_520-259    N    0.62399998    0.31313003    0.23464015    -0.39550000
opls_750-260    N    0.08725004    0.86879993    0.80044061    -0.32870000
opls_520-261    N    0.04236999    0.01656992    0.82082037    -0.39430000
opls_750-262    N    0.21958993    0.77207996    0.81744966    -0.33810000
opls_520-263    N    0.29064995    0.64438983    0.85063022    -0.39480000
opls_146-264    H    0.43279977    0.97249981    0.34435942    0.09700000
opls_144-265    H    0.41766986    0.90385974    0.35976974    0.11080000
opls_146-266    H    0.37679007    0.84043001    0.27680062    0.12410000
opls_526-267    H    0.33373984    0.76634988    0.28787036    0.11860000
opls_526-268    H    0.43992992    0.75480977    0.41314045    0.12110000
opls_146-269    H    0.48325002    0.82974978    0.40903039    0.12310000
opls_702-270    H    0.65110012    0.57604008    0.17097043    0.09120000
opls_146-271    H    0.59525002    0.61072993    0.19165985    0.12470000
opls_146-272    H    0.60606995    0.67977995    0.15496944    0.12440000
opls_146-273    H    0.67496008    0.74065003    0.21276941    0.11990000
opls_146-274    H    0.73201984    0.73098990    0.32163065    0.11830000
opls_146-275    H    0.72119985    0.66212995    0.37336989    0.12440000
opls_140-276    H    0.68261988    0.59576998    0.56521935    0.17490000
opls_140-277    H    0.67063001    0.54874994    0.44794020    0.11550000
opls_140-278    H    0.71064995    0.59666000    0.36185000    0.17490000
opls_146-279    H    0.58318987    0.02679992    0.25033966    0.12650000
opls_144-280    H    0.59716987    0.09708994    0.22163065    0.12230000
opls_146-281    H    0.63708989    0.16303995    0.20516997    0.12320000
opls_526-282    H    0.67486990    0.23730984    0.18929994    0.12110000
opls_526-283    H    0.56286994    0.24022009    0.29338953    0.11570000
opls_146-284    H    0.52487992    0.16499006    0.30991979    0.11900000
opls_702-285    H    0.33259985    0.40000996    0.25798958    0.11660000
opls_146-286    H    0.39184008    0.36908009    0.45347984    0.12040000
opls_146-287    H    0.37358007    0.29852006    0.53533039    0.11330000
opls_146-288    H    0.30098985    0.24590988    0.59199951    0.12180000
opls_146-289    H    0.24604985    0.26380991    0.55912042    0.12330000
opls_146-290    H    0.26260993    0.33326004    0.48086976    0.12440000
opls_140-291    H    0.31235990    0.41141999    0.65377039    0.11380000
opls_140-292    H    0.32353001    0.44862982    0.47521007    0.17610000
opls_140-293    H    0.27990987    0.39907996    0.45133955    0.11570000
opls_146-294    H    0.11024004    0.30912987    0.68364981    0.12040000
opls_144-295    H    0.09059004    0.23892996    0.73721013    0.12470000
opls_146-296    H    0.04616990    0.17474983    0.75138048    0.12440000
opls_526-297    H    0.00249991    0.10096002    0.76206962    0.11880000
opls_526-298    H    0.10839004    0.08728004    0.86548944    0.11810000
opls_146-299    H    0.15276005    0.16226003    0.85444972    0.11890000
opls_702-300    H    0.29206977    0.90443976    0.50746030    0.10780000
opls_146-301    H    0.26341989    0.95067004    0.67124052    0.12340000
opls_146-302    H    0.29012998    0.02125990    0.77938970    0.12080000
opls_146-303    H    0.36284996    0.06310005    0.87892045    0.12070000
opls_146-304    H    0.40863017    0.03347015    0.86992006    0.11580000
opls_146-305    H    0.38265995    0.96257981    0.77015060    0.12180000
opls_140-306    H    0.34217003    0.88782002    0.79286981    0.11600000
opls_140-307    H    0.31620983    0.85698979    0.59562940    0.11550000
opls_140-308    H    0.35879996    0.90793987    0.56366972    0.17540000
opls_146-309    H    0.25693000    0.35934985    0.86438997    0.12030000
opls_144-310    H    0.27364008    0.43191996    0.84192039    0.10370000
opls_146-311    H    0.31251001    0.49942982    0.80804005    0.11990000
opls_526-312    H    0.34827013    0.57434000    0.82436978    0.11930000
opls_526-313    H    0.23127989    0.56988991    0.87166066    0.12340000
opls_146-314    H    0.19590987    0.49505999    0.86043952    0.12000000
opls_702-315    H    0.98963989    0.74886995    0.86250068    0.05140000
opls_146-316    H    0.02998994    0.69393999    0.88932995    0.11710000
opls_146-317    H    0.99666990    0.61846978    0.91096060    0.10900000
opls_146-318    H    0.92835997    0.57866985    0.05849021    0.12000000
opls_146-319    H    0.89302998    0.61408980    0.18313008    0.11910000
opls_146-320    H    0.92518977    0.68906980    0.16390981    0.12080000
opls_140-321    H    0.98962990    0.75879978    0.27636002    0.12880000
opls_140-322    H    0.00446001    0.80025981    0.11663938    0.11550000
opls_140-323    H    0.95329997    0.75725993    0.10955012    0.11570000
opls_146-324    H    0.02749996    0.46030002    0.34435942    0.09700000
opls_144-325    H    0.09613995    0.51381006    0.35976974    0.11080000
opls_146-326    H    0.15957001    0.53635979    0.27680062    0.12390000
opls_526-327    H    0.23364995    0.56738992    0.28787036    0.11860000
opls_526-328    H    0.24519011    0.68512007    0.41314045    0.12110000
opls_146-329    H    0.17025008    0.65350008    0.40903039    0.12310000
opls_702-330    H    0.42396010    0.07505995    0.17097043    0.09130000
opls_146-331    H    0.38927010    0.98452000    0.19165985    0.12470000
opls_146-332    H    0.32021990    0.92628984    0.15496944    0.12440000
opls_146-333    H    0.25934992    0.93430985    0.21276941    0.11990000
opls_146-334    H    0.26900996    0.00102995    0.32163065    0.11830000
opls_146-335    H    0.33787004    0.05907005    0.37336989    0.12440000
opls_140-336    H    0.40423008    0.08685010    0.56521935    0.17490000
opls_140-337    H    0.45125017    0.12188009    0.44794020    0.11550000
opls_140-338    H    0.40333998    0.11398985    0.36185000    0.17490000
opls_146-339    H    0.97320003    0.55638984    0.25033966    0.12650000
opls_144-340    H    0.90291003    0.50007996    0.22163065    0.12220000
opls_146-341    H    0.83695992    0.47404981    0.20516997    0.12320000
opls_526-342    H    0.76268990    0.43755993    0.18929994    0.12110000
opls_526-343    H    0.75977994    0.32264992    0.29338953    0.11570000
opls_146-344    H    0.83500988    0.35988989    0.30991979    0.11890000
opls_702-345    H    0.59999000    0.93258978    0.25798958    0.11660000
opls_146-346    H    0.63092013    0.02276008    0.45347984    0.12040000
opls_146-347    H    0.70147992    0.07505995    0.53533039    0.11330000
opls_146-348    H    0.75409010    0.05508003    0.59199951    0.12180000
opls_146-349    H    0.73619005    0.98223990    0.55912042    0.12330000
opls_146-350    H    0.66673984    0.92934986    0.48086976    0.12440000
opls_140-351    H    0.58857989    0.90093996    0.65377039    0.11380000
opls_140-352    H    0.55137010    0.87489997    0.47521007    0.17610000
opls_140-353    H    0.60091984    0.88082995    0.45133955    0.11570000
opls_146-354    H    0.69086984    0.80110985    0.68364981    0.12040000
opls_144-355    H    0.76107004    0.85165982    0.73721013    0.12470000
opls_146-356    H    0.82524980    0.87141985    0.75138048    0.12440000
opls_526-357    H    0.89903986    0.90153997    0.76206962    0.11870000
opls_526-358    H    0.91271997    0.02110982    0.86548944    0.11810000
opls_146-359    H    0.83773999    0.99049979    0.85444972    0.11890000
opls_702-360    H    0.09556002    0.38762996    0.50746030    0.10770000
opls_146-361    H    0.04933007    0.31274991    0.67124052    0.12030000
opls_146-362    H    0.97873984    0.26886986    0.77938970    0.12110000
opls_146-363    H    0.93690008    0.29974991    0.87892045    0.12070000
opls_146-364    H    0.96652997    0.37515984    0.86992006    0.11580000
opls_146-365    H    0.03741999    0.42008000    0.77015060    0.12180000
opls_140-366    H    0.11217998    0.45435006    0.79286981    0.11600000
opls_140-367    H    0.14300993    0.45921994    0.59562940    0.11550000
opls_140-368    H    0.09206014    0.45086010    0.56366972    0.17540000
opls_146-369    H    0.64064983    0.89757979    0.86438997    0.12030000
opls_144-370    H    0.56807989    0.84171984    0.84192039    0.10370000
opls_146-371    H    0.50057001    0.81307990    0.80804005    0.12000000
opls_526-372    H    0.42565996    0.77392981    0.82436978    0.11940000
opls_526-373    H    0.43011013    0.66139001    0.87166066    0.12340000
opls_146-374    H    0.50493984    0.70084979    0.86043952    0.12000000
opls_702-375    H    0.25112988    0.24076997    0.86250068    0.05140000
opls_146-376    H    0.30606009    0.33605004    0.88932995    0.11710000
opls_146-377    H    0.38152984    0.37819987    0.91096060    0.10900000
opls_146-378    H    0.42132990    0.34969003    0.05849021    0.11990000
opls_146-379    H    0.38590984    0.27893994    0.18313008    0.11910000
opls_146-380    H    0.31092987    0.23611997    0.16390981    0.12090000
opls_140-381    H    0.24119989    0.23082998    0.27636002    0.12880000
opls_140-382    H    0.19974005    0.20420013    0.11663938    0.11550000
opls_140-383    H    0.24274007    0.19603987    0.10955012    0.11570000
opls_146-384    H    0.53969985    0.56719986    0.34435942    0.09700000
opls_144-385    H    0.48619003    0.58232988    0.35976974    0.11080000
opls_146-386    H    0.46364003    0.62320989    0.27680062    0.12400000
opls_526-387    H    0.43261006    0.66625989    0.28787036    0.11860000
opls_526-388    H    0.31487982    0.56006986    0.41314045    0.12110000
opls_146-389    H    0.34650001    0.51674984    0.40903039    0.12310000
opls_702-390    H    0.92494004    0.34889996    0.17097043    0.09120000
opls_146-391    H    0.01548015    0.40475007    0.19165985    0.12470000
opls_146-392    H    0.07370999    0.39392991    0.15496944    0.12440000
opls_146-393    H    0.06568985    0.32503981    0.21276941    0.11990000
opls_146-394    H    0.99897005    0.26797984    0.32163065    0.11870000
opls_146-395    H    0.94093011    0.27880001    0.37336989    0.12440000
opls_140-396    H    0.91315004    0.31737992    0.56521935    0.17490000
opls_140-397    H    0.87812009    0.32936997    0.44794020    0.11550000
opls_140-398    H    0.88600991    0.28934984    0.36185000    0.17490000
opls_146-399    H    0.44360994    0.41680993    0.25033966    0.12650000
opls_144-400    H    0.49992010    0.40283010    0.22163065    0.12220000
opls_146-401    H    0.52595004    0.36290993    0.20516997    0.12320000
opls_526-402    H    0.56244005    0.32512992    0.18929994    0.12110000
opls_526-403    H    0.67735013    0.43712999    0.29338953    0.11570000
opls_146-404    H    0.64010994    0.47512005    0.30991979    0.11890000
opls_702-405    H    0.06740999    0.66739994    0.25798958    0.11660000
opls_146-406    H    0.97723979    0.60815982    0.45347984    0.12040000
opls_146-407    H    0.92494001    0.62641999    0.53533039    0.11340000
opls_146-408    H    0.94491990    0.69900978    0.59199951    0.12180000
opls_146-409    H    0.01775994    0.75394988    0.55912042    0.12330000
opls_146-410    H    0.07064981    0.73738980    0.48086976    0.12440000
opls_140-411    H    0.09905994    0.68764005    0.65377039    0.11380000
opls_140-412    H    0.12510000    0.67646990    0.47521007    0.17610000
opls_140-413    H    0.11916986    0.72008978    0.45133955    0.11570000
opls_146-414    H    0.19888996    0.88975998    0.68364981    0.12040000
opls_144-415    H    0.14834003    0.90940991    0.73721013    0.12470000
opls_146-416    H    0.12857988    0.95383001    0.75138048    0.12440000
opls_526-417    H    0.09845996    0.99750001    0.76206962    0.11870000
opls_526-418    H    0.97888984    0.89160983    0.86548944    0.11660000
opls_146-419    H    0.00949980    0.84723986    0.85444972    0.11890000
opls_702-420    H    0.61237005    0.70792997    0.50746030    0.10770000
opls_146-421    H    0.68725003    0.73658005    0.67124052    0.12340000
opls_146-422    H    0.73113002    0.70986993    0.77938970    0.12080000
opls_146-423    H    0.70024996    0.63715004    0.87892045    0.12030000
opls_146-424    H    0.62484013    0.59137001    0.86992006    0.11580000
opls_146-425    H    0.57991991    0.61733988    0.77015060    0.12180000
opls_140-426    H    0.54564999    0.65782993    0.79286981    0.11600000
opls_140-427    H    0.54078009    0.68378996    0.59562940    0.11550000
opls_140-428    H    0.54913990    0.64120003    0.56366972    0.17530000
opls_146-429    H    0.10242001    0.74307006    0.86438997    0.12030000
opls_144-430    H    0.15827988    0.72635989    0.84192039    0.10370000
opls_146-431    H    0.18692009    0.68748997    0.80804005    0.12000000
opls_526-432    H    0.22607002    0.65172988    0.82436978    0.11930000
opls_526-433    H    0.33860983    0.76871978    0.87166066    0.12340000
opls_146-434    H    0.29914987    0.80408991    0.86043952    0.12000000
opls_702-435    H    0.75922981    0.01035978    0.86250068    0.05140000
opls_146-436    H    0.66394997    0.97000997    0.88932995    0.11710000
opls_146-437    H    0.62180011    0.00333004    0.91096060    0.10900000
opls_146-438    H    0.65031013    0.07164011    0.05849021    0.11990000
opls_146-439    H    0.72106003    0.10696995    0.18313008    0.11910000
opls_146-440    H    0.76387994    0.07480993    0.16390981    0.12080000
opls_140-441    H    0.76917006    0.01036993    0.27636002    0.12880000
opls_140-442    H    0.79579993    0.99554006    0.11663938    0.11550000
opls_140-443    H    0.80396007    0.04669989    0.10955012    0.11570000
opls_473-444    O    0.57801988    0.52486980    0.26536940    -0.27300000
opls_466-445    O    0.59582998    0.56052994    0.53391035    -0.45260000
opls_473-446    O    0.40613005    0.45942999    0.29199951    -0.27230000
opls_466-447    O    0.39886001    0.43839982    0.58975964    -0.49150000
opls_473-448    O    0.23226015    0.84285004    0.66949037    -0.26940000
opls_466-449    O    0.26214982    0.88282988    0.92079036    -0.46130000
opls_473-450    O    0.06681011    0.78910996    0.83817046    -0.26930000
opls_466-451    O    0.06568984    0.76586981    0.12847029    -0.49660000
opls_473-452    O    0.47513008    0.05314991    0.26536940    -0.27290000
opls_466-453    O    0.43946994    0.03530001    0.53391035    -0.45270000
opls_473-454    O    0.54057003    0.94670001    0.29199951    -0.27230000
opls_466-455    O    0.56159996    0.96045994    0.58975964    -0.49140000
opls_473-456    O    0.15714987    0.38941000    0.66949037    -0.26930000
opls_466-457    O    0.11716993    0.37931993    0.92079036    -0.46130000
opls_473-458    O    0.21088990    0.27769994    0.83817046    -0.26930000
opls_466-459    O    0.23413007    0.29982003    0.12847029    -0.49660000
opls_473-460    O    0.94684988    0.42197998    0.26536940    -0.27290000
opls_466-461    O    0.96470008    0.40417005    0.53391035    -0.45270000
opls_473-462    O    0.05329992    0.59387000    0.29199951    -0.27230000
opls_466-463    O    0.03953988    0.60113993    0.58975964    -0.49140000
opls_473-464    O    0.61058998    0.76773996    0.66949037    -0.26940000
opls_466-465    O    0.62067984    0.73784988    0.92079036    -0.46130000
opls_473-466    O    0.72229984    0.93318979    0.83817046    -0.26930000
opls_466-467    O    0.70017993    0.93430985    0.12847029    -0.49660000
