#======================================================================
# Crystal Data Generated By AuToFF
#----------------------------------------------------------------------

data_AuToFF_phase_1

_cell_length_a                         37.2367
_cell_length_b                         7.1945
_cell_length_c                         37.1996
_cell_angle_alpha                      90.00
_cell_angle_beta                       120.70
_cell_angle_gamma                      90.00
_symmetry_space_group_name_H-M_alt     'P 1'
_symmetry_space_group_IT_number        1

loop_
_space_group_symop_operation_xyz
   'x, y, z'

loop_
   _atom_site_label
   _atom_site_type_symbol
   _atom_site_fract_x
   _atom_site_fract_y
   _atom_site_fract_z
   _atom_site_charge
opls_700-0    C    0.01700014    0.33989019    0.48779018    -0.03640000
opls_145-1    C    0.04451006    0.34169018    0.47257008    -0.19170000
opls_166-2    C    0.08714003    0.31242060    0.49864016    0.26720000
opls_142-3    C    0.97217010    0.35103065    0.45725994    0.07880000
opls_145-4    C    0.90028995    0.28836055    0.43743991    0.18920000
opls_145-5    C    0.88396007    0.28026965    0.39417008    -0.17100000
opls_523-6    C    0.84149002    0.25628049    0.36736998    -0.12440000
opls_700-7    C    0.81421011    0.23970950    0.38297995    -0.00720000
opls_523-8    C    0.83042010    0.25003961    0.42612004    -0.12570000
opls_145-9    C    0.87305021    0.27283063    0.45297016    -0.19530000
opls_531-10    C    0.76934011    0.20817013    0.35438997    0.32930000
opls_465-11    C    0.60691010    0.17934950    0.58551999    0.55970000
opls_275-12    C    0.63726009    0.14282994    0.63081012    -0.09750000
opls_700-13    C    0.66645012    0.30503996    0.65204017    0.07340000
opls_145-14    C    0.70942994    0.28265064    0.66881005    -0.11310000
opls_145-15    C    0.73648993    0.43048023    0.68908997    -0.09150000
opls_145-16    C    0.72099990    0.60149976    0.69299988    -0.09210000
opls_145-17    C    0.67840010    0.62524011    0.67650013    -0.09270000
opls_145-18    C    0.65117011    0.47845021    0.65597010    -0.11870000
opls_135-19    C    0.61451014    0.09141983    0.65413019    -0.40840000
opls_700-20    C    0.60026003    0.01295017    0.03779014    -0.03800000
opls_145-21    C    0.55828007    0.98185975    0.00974009    -0.19320000
opls_166-22    C    0.54273998    0.98431024    0.96711993    0.24650000
opls_142-23    C    0.61395008    0.00272013    0.08251001    0.08020000
opls_145-24    C    0.66505000    0.06395024    0.15479002    0.19130000
opls_145-25    C    0.63782984    0.06186948    0.17084989    -0.16680000
opls_523-26    C    0.65302993    0.08529015    0.21332999    -0.13720000
opls_700-27    C    0.69564005    0.11227048    0.24076006    -0.00750000
opls_523-28    C    0.72275988    0.11161999    0.22478993    -0.11540000
opls_145-29    C    0.70751000    0.08802002    0.18227012    -0.16850000
opls_531-30    C    0.71149006    0.14430051    0.28556998    0.33260000
opls_465-31    C    0.10809017    0.39835013    0.44955015    0.55830000
opls_275-32    C    0.11889019    0.32663006    0.41801007    -0.09690000
opls_700-33    C    0.09767015    0.43636945    0.37773004    0.08040000
opls_145-34    C    0.06621995    0.35275002    0.34134993    -0.13100000
opls_145-35    C    0.04607016    0.45322955    0.30425010    -0.09270000
opls_145-36    C    0.05704008    0.63790951    0.30305987    -0.08920000
opls_145-37    C    0.08820011    0.72251025    0.33895007    -0.09330000
opls_145-38    C    0.10855990    0.62246994    0.37608991    -0.12960000
opls_135-39    C    0.16593002    0.31944958    0.43628001    -0.40840000
opls_700-40    C    0.56994010    0.03785948    0.46012000    -0.03120000
opls_145-41    C    0.58541987    0.04689972    0.50283990    -0.23330000
opls_166-42    C    0.55909001    0.04486066    0.51954005    0.26600000
opls_142-43    C    0.59992019    0.05228994    0.44533009    0.07860000
opls_145-44    C    0.61665988    0.12329974    0.39181994    0.19910000
opls_145-45    C    0.65819013    0.17727987    0.41805009    -0.15510000
opls_523-46    C    0.68503014    0.19780944    0.40233007    -0.12500000
opls_700-47    C    0.67089998    0.16674960    0.36007007    0.00500000
opls_523-48    C    0.62890017    0.12251998    0.33356010    -0.11780000
opls_145-49    C    0.60210018    0.10175968    0.34938017    -0.17460000
opls_531-50    C    0.69993017    0.17525054    0.34387014    0.33260000
opls_465-51    C    0.46989009    0.03162972    0.93263005    0.56080000
opls_275-52    C    0.42761014    0.94829940    0.91714014    -0.09700000
opls_700-53    C    0.41121008    0.99360067    0.94643013    0.07940000
opls_145-54    C    0.43674016    0.95770936    0.98915003    -0.12570000
opls_145-55    C    0.42329014    0.99749948    0.01726010    -0.09270000
opls_145-56    C    0.38372017    0.06971992    0.00306015    -0.08770000
opls_145-57    C    0.35741008    0.10056988    0.96070011    -0.09200000
opls_145-58    C    0.37095006    0.06385016    0.93249999    -0.11760000
opls_135-59    C    0.39889992    0.00464938    0.87168993    -0.40840000
opls_700-60    C    0.10352002    0.28142053    0.54375990    -0.03790000
opls_145-61    C    0.07607000    0.28140941    0.55915009    -0.23370000
opls_166-62    C    0.03344997    0.31610953    0.53308001    0.26710000
opls_142-63    C    0.14828021    0.25161999    0.57278008    0.07880000
opls_145-64    C    0.21894014    0.25079019    0.58315015    0.20070000
opls_145-65    C    0.24099017    0.19897978    0.62528009    -0.16120000
opls_523-66    C    0.28389003    0.17018973    0.64505009    -0.11610000
opls_700-67    C    0.30525991    0.19007992    0.62298998    0.00810000
opls_523-68    C    0.28314985    0.24418931    0.58120989    -0.12890000
opls_145-69    C    0.24058999    0.27621933    0.56180005    -0.16300000
opls_531-70    C    0.35031009    0.15497950    0.64316016    0.32930000
opls_465-71    C    0.47137986    0.05295017    0.35965988    0.55850000
opls_275-72    C    0.45177992    0.98428939    0.31542992    -0.09700000
opls_700-73    C    0.41211997    0.08811036    0.28641005    0.08080000
opls_145-74    C    0.37397992    0.99345055    0.26650999    -0.13100000
opls_145-75    C    0.33736003    0.08870943    0.24011008    -0.09270000
opls_145-76    C    0.33843007    0.27892001    0.23316001    -0.08940000
opls_145-77    C    0.37614997    0.37423031    0.25251014    -0.09330000
opls_145-78    C    0.41281015    0.27994996    0.27911014    -0.12800000
opls_135-79    C    0.48264999    0.99527973    0.29962017    -0.40840000
opls_700-80    C    0.57089012    0.02584057    0.95075993    -0.03120000
opls_145-81    C    0.61332005    0.04889012    0.97850014    -0.22050000
opls_166-82    C    0.62921005    0.04797971    0.02176998    0.27190000
opls_142-83    C    0.55428009    0.04479950    0.90570990    0.08370000
opls_145-84    C    0.49307022    0.10056988    0.83749019    0.19580000
opls_145-85    C    0.50790991    0.02572938    0.81248998    -0.17390000
opls_523-86    C    0.48341014    0.03258044    0.76929017    -0.12560000
opls_700-87    C    0.44353014    0.11176037    0.75038994    0.00720000
opls_523-88    C    0.42896008    0.18751963    0.77547019    -0.13080000
opls_145-89    C    0.45371014    0.18258948    0.81863998    -0.18040000
opls_531-90    C    0.41749996    0.11563000    0.70474996    0.33590000
opls_465-91    C    0.01762014    0.38119953    0.58754998    0.55540000
opls_275-92    C    0.99211007    0.33110015    0.60726996    -0.09690000
opls_700-93    C    0.01461003    0.36553061    0.65381004    0.07340000
opls_145-94    C    0.02575012    0.21436931    0.68134016    -0.11520000
opls_145-95    C    0.04551008    0.24425047    0.72418012    -0.09210000
opls_145-96    C    0.05432012    0.42493988    0.74000018    -0.09230000
opls_145-97    C    0.04362999    0.57621933    0.71302000    -0.09210000
opls_145-98    C    0.02404996    0.54719021    0.67018005    -0.11870000
opls_135-99    C    0.95059013    0.43368962    0.58548997    -0.41640000
opls_700-100    C    0.51368007    0.02010981    0.49121988    -0.03790000
opls_145-101    C    0.49833995    0.00188060    0.44850999    -0.23150000
opls_166-102    C    0.52462995    0.01533950    0.43159004    0.26710000
opls_142-103    C    0.48406015    0.02090069    0.50674012    0.08250000
opls_145-104    C    0.47356013    0.03352978    0.56684017    0.19570000
opls_145-105    C    0.42998011    0.04798944    0.54579990    -0.16290000
opls_523-106    C    0.40921999    0.06668983    0.56833992    -0.11920000
opls_700-107    C    0.43162991    0.07000069    0.61199994    0.00820000
opls_523-108    C    0.47490993    0.05137953    0.63251997    -0.13340000
opls_145-109    C    0.49542998    0.03521996    0.61012001    -0.17170000
opls_531-110    C    0.41089011    0.09510042    0.63673003    0.33310000
opls_465-111    C    0.69810000    0.16294948    0.04202989    0.55540000
opls_275-112    C    0.74425009    0.12714018    0.06536997    -0.09880000
opls_700-113    C    0.76888005    0.29002015    0.06288008    0.07920000
opls_145-114    C    0.79316003    0.26813955    0.04391013    -0.13100000
opls_145-115    C    0.81643004    0.41696018    0.04219997    -0.09620000
opls_145-116    C    0.81591007    0.58833970    0.05959013    -0.09280000
opls_145-117    C    0.79198001    0.61150045    0.07855007    -0.09380000
opls_145-118    C    0.76830018    0.46402947    0.07997010    -0.13100000
opls_135-119    C    0.75946002    0.07815971    0.11087989    -0.40840000
opls_700-120    C    0.98300002    0.83989019    0.51221013    -0.03640000
opls_145-121    C    0.95548994    0.84169018    0.52742992    -0.19170000
opls_166-122    C    0.91286013    0.81242060    0.50136015    0.26720000
opls_142-123    C    0.02783017    0.85103065    0.54274006    0.07880000
opls_145-124    C    0.09971005    0.78836055    0.56256009    0.18920000
opls_145-125    C    0.11603993    0.78026965    0.60582992    -0.17100000
opls_523-126    C    0.15850998    0.75628049    0.63263002    -0.12440000
opls_700-127    C    0.18579016    0.73970950    0.61702005    -0.00720000
opls_523-128    C    0.16957990    0.75003961    0.57387996    -0.12570000
opls_145-129    C    0.12695021    0.77283063    0.54703015    -0.19530000
opls_531-130    C    0.23066016    0.70817013    0.64561003    0.32920000
opls_465-131    C    0.39308990    0.67934950    0.41448001    0.55970000
opls_275-132    C    0.36273991    0.64282994    0.36918988    -0.09750000
opls_700-133    C    0.33355004    0.80503996    0.34796014    0.07340000
opls_145-134    C    0.29057006    0.78265064    0.33118995    -0.11310000
opls_145-135    C    0.26351007    0.93048023    0.31091003    -0.09150000
opls_145-136    C    0.27900010    0.10149976    0.30700012    -0.09210000
opls_145-137    C    0.32159990    0.12524011    0.32349987    -0.09270000
opls_145-138    C    0.34882989    0.97845021    0.34402990    -0.11870000
opls_135-139    C    0.38549002    0.59141983    0.34587012    -0.40840000
opls_700-140    C    0.39974013    0.51295017    0.96221018    -0.03800000
opls_145-141    C    0.44171993    0.48185975    0.99025991    -0.19320000
opls_166-142    C    0.45726002    0.48431024    0.03288007    0.24650000
opls_142-143    C    0.38604992    0.50272013    0.91748999    0.08020000
opls_145-144    C    0.33495000    0.56395024    0.84520998    0.19130000
opls_145-145    C    0.36217016    0.56186948    0.82915011    -0.16680000
opls_523-146    C    0.34697007    0.58529015    0.78667001    -0.13720000
opls_700-147    C    0.30435995    0.61227048    0.75923994    -0.00750000
opls_523-148    C    0.27724012    0.61161999    0.77521007    -0.11540000
opls_145-149    C    0.29249016    0.58802002    0.81773019    -0.16850000
opls_531-150    C    0.28850994    0.64430051    0.71443002    0.33260000
opls_465-151    C    0.89190999    0.89835013    0.55045016    0.55830000
opls_275-152    C    0.88111008    0.82663006    0.58198993    -0.09690000
opls_700-153    C    0.90233012    0.93636945    0.62226996    0.08030000
opls_145-154    C    0.93378005    0.85275002    0.65865007    -0.13100000
opls_145-155    C    0.95393010    0.95322955    0.69574990    -0.09270000
opls_145-156    C    0.94296019    0.13790951    0.69694013    -0.08920000
opls_145-157    C    0.91179989    0.22251025    0.66104993    -0.09330000
opls_145-158    C    0.89144010    0.12246994    0.62391009    -0.12960000
opls_135-159    C    0.83406998    0.81944958    0.56371999    -0.40840000
opls_700-160    C    0.43005990    0.53785948    0.53988000    -0.03120000
opls_145-161    C    0.41458013    0.54689972    0.49716010    -0.23330000
opls_166-162    C    0.44090999    0.54486066    0.48045995    0.26590000
opls_142-163    C    0.40008008    0.55228994    0.55466991    0.07860000
opls_145-164    C    0.38334012    0.62329974    0.60818006    0.19910000
opls_145-165    C    0.34180987    0.67727987    0.58194991    -0.15510000
opls_523-166    C    0.31497013    0.69780944    0.59766993    -0.12500000
opls_700-167    C    0.32910002    0.66674960    0.63992993    0.00500000
opls_523-168    C    0.37110009    0.62251998    0.66643990    -0.11780000
opls_145-169    C    0.39789998    0.60175968    0.65062014    -0.17460000
opls_531-170    C    0.30006999    0.67525054    0.65613017    0.33260000
opls_465-171    C    0.53010991    0.53162972    0.06736995    0.56080000
opls_275-172    C    0.57238986    0.44829940    0.08285986    -0.09700000
opls_700-173    C    0.58878992    0.49360067    0.05356987    0.07940000
opls_145-174    C    0.56326011    0.45770936    0.01084997    -0.12570000
opls_145-175    C    0.57671029    0.49749948    0.98274021    -0.09270000
opls_145-176    C    0.61628026    0.56971992    0.99694016    -0.08770000
opls_145-177    C    0.64258992    0.60056988    0.03929989    -0.09210000
opls_145-178    C    0.62904994    0.56385016    0.06750001    -0.11760000
opls_135-179    C    0.60110008    0.50464938    0.12831007    -0.40840000
opls_700-180    C    0.89647998    0.78142053    0.45624010    -0.03790000
opls_145-181    C    0.92393000    0.78140941    0.44084991    -0.23370000
opls_166-182    C    0.96655003    0.81610953    0.46691999    0.26720000
opls_142-183    C    0.85172006    0.75161999    0.42721992    0.07880000
opls_145-184    C    0.78106002    0.75079019    0.41685016    0.20070000
opls_145-185    C    0.75901010    0.69897978    0.37471991    -0.16120000
opls_523-186    C    0.71610997    0.67018973    0.35494991    -0.11610000
opls_700-187    C    0.69474009    0.69007992    0.37701002    0.00810000
opls_523-188    C    0.71685015    0.74418931    0.41879011    -0.12890000
opls_145-189    C    0.75941001    0.77621933    0.43819995    -0.16300000
opls_531-190    C    0.64969007    0.65497950    0.35684015    0.32920000
opls_465-191    C    0.52862014    0.55295017    0.64034012    0.55850000
opls_275-192    C    0.54822008    0.48428939    0.68457008    -0.09700000
opls_700-193    C    0.58788003    0.58811036    0.71358995    0.08080000
opls_145-194    C    0.62602008    0.49345055    0.73349001    -0.13100000
opls_145-195    C    0.66263997    0.58870943    0.75988992    -0.09270000
opls_145-196    C    0.66156993    0.77892001    0.76683999    -0.08940000
opls_145-197    C    0.62385019    0.87423031    0.74749018    -0.09330000
opls_145-198    C    0.58719001    0.77994996    0.72089017    -0.12800000
opls_135-199    C    0.51735017    0.49527973    0.70038014    -0.40840000
opls_700-200    C    0.42911015    0.52584057    0.04924007    -0.03120000
opls_145-201    C    0.38667995    0.54889012    0.02149986    -0.22050000
opls_166-202    C    0.37078995    0.54797971    0.97823002    0.27200000
opls_142-203    C    0.44572018    0.54479950    0.09429010    0.08370000
opls_145-204    C    0.50692994    0.60056988    0.16251013    0.19580000
opls_145-205    C    0.49209009    0.52572938    0.18751002    -0.17390000
opls_523-206    C    0.51659002    0.53258044    0.23071014    -0.12560000
opls_700-207    C    0.55647013    0.61176037    0.24961006    0.00720000
opls_523-208    C    0.57104008    0.68751963    0.22453012    -0.13080000
opls_145-209    C    0.54629013    0.68258948    0.18136002    -0.18040000
opls_531-210    C    0.58250004    0.61563000    0.29525004    0.33600000
opls_465-211    C    0.98238013    0.88119953    0.41245002    0.55540000
opls_275-212    C    0.00788993    0.83110015    0.39273004    -0.09690000
opls_700-213    C    0.98538997    0.86553061    0.34618996    0.07340000
opls_145-214    C    0.97425004    0.71436931    0.31866015    -0.11520000
opls_145-215    C    0.95448992    0.74425047    0.27581988    -0.09210000
opls_145-216    C    0.94568004    0.92493988    0.26000013    -0.09230000
opls_145-217    C    0.95637001    0.07621933    0.28698000    -0.09210000
opls_145-218    C    0.97595004    0.04719021    0.32981995    -0.11870000
opls_135-219    C    0.04941014    0.93368962    0.41451003    -0.41790000
opls_700-220    C    0.48632020    0.52010981    0.50878012    -0.03790000
opls_145-221    C    0.50166005    0.50188060    0.55149001    -0.23460000
opls_166-222    C    0.47537005    0.51533950    0.56840996    0.26710000
opls_142-223    C    0.51593985    0.52090069    0.49325988    0.08250000
opls_145-224    C    0.52644003    0.53352978    0.43316014    0.19570000
opls_145-225    C    0.57002016    0.54798944    0.45420010    -0.16290000
opls_523-226    C    0.59078001    0.56668983    0.43166008    -0.11920000
opls_700-227    C    0.56837009    0.56999931    0.38800006    0.00820000
opls_523-228    C    0.52509007    0.55137953    0.36748003    -0.13340000
opls_145-229    C    0.50457002    0.53521996    0.38987999    -0.17170000
opls_531-230    C    0.58910989    0.59510042    0.36326997    0.33310000
opls_465-231    C    0.30190000    0.66294948    0.95797011    0.55540000
opls_275-232    C    0.25575018    0.62714018    0.93463003    -0.09880000
opls_700-233    C    0.23111995    0.79002015    0.93711992    0.07920000
opls_145-234    C    0.20684013    0.76813955    0.95609018    -0.13100000
opls_145-235    C    0.18356996    0.91696018    0.95780003    -0.09620000
opls_145-236    C    0.18409009    0.08833970    0.94041018    -0.09280000
opls_145-237    C    0.20801999    0.11150045    0.92144993    -0.09380000
opls_145-238    C    0.23170009    0.96402947    0.92002990    -0.13100000
opls_135-239    C    0.24053998    0.57815971    0.88912011    -0.40840000
opls_750-240    N    0.94416015    0.30022934    0.46638006    -0.35050000
opls_520-241    N    0.75474000    0.17789005    0.31339992    -0.41550000
opls_750-242    N    0.65067998    0.05542984    0.11094993    -0.29800000
opls_520-243    N    0.68514001    0.14371951    0.30070004    -0.40390000
opls_750-244    N    0.58846005    0.09413997    0.40712008    -0.34560000
opls_520-245    N    0.74094022    0.20579053    0.36983017    -0.40400000
opls_750-246    N    0.17479009    0.27571061    0.56020995    -0.35030000
opls_520-247    N    0.37377995    0.14895962    0.68512002    -0.41560000
opls_750-248    N    0.51528022    0.08342067    0.88180019    -0.29790000
opls_520-249    N    0.43506000    0.08855932    0.68102002    -0.41490000
opls_750-250    N    0.49744020    0.02431997    0.54628012    -0.35050000
opls_520-251    N    0.36965020    0.12833970    0.61841006    -0.40310000
opls_750-252    N    0.05584012    0.80022934    0.53361994    -0.35050000
opls_520-253    N    0.24526000    0.67789005    0.68660008    -0.41540000
opls_750-254    N    0.34932002    0.55542984    0.88905007    -0.29800000
opls_520-255    N    0.31485999    0.64371951    0.69929996    -0.40400000
opls_750-256    N    0.41153995    0.59413997    0.59287992    -0.34560000
opls_520-257    N    0.25906021    0.70579053    0.63017014    -0.40410000
opls_750-258    N    0.82521018    0.77571061    0.43979005    -0.35030000
opls_520-259    N    0.62622005    0.64895962    0.31487998    -0.41560000
opls_750-260    N    0.48471994    0.58342067    0.11820012    -0.29790000
opls_520-261    N    0.56494000    0.58855932    0.31897998    -0.41500000
opls_750-262    N    0.50256007    0.52431997    0.45371988    -0.35050000
opls_520-263    N    0.63035007    0.62833970    0.38158994    -0.40310000
opls_146-264    H    0.03221991    0.35497950    0.43944990    0.11710000
opls_144-265    H    0.96334998    0.39559942    0.42617006    0.10030000
opls_146-266    H    0.90361998    0.28720967    0.38057009    0.11630000
opls_526-267    H    0.83013003    0.24874974    0.33433014    0.11640000
opls_526-268    H    0.81033010    0.23738967    0.43926012    0.11250000
opls_146-269    H    0.88491992    0.27712975    0.48606002    0.22930000
opls_702-270    H    0.65560007    0.01897978    0.63181996    0.08070000
opls_146-271    H    0.72206019    0.15074015    0.66637018    0.11460000
opls_146-272    H    0.76953996    0.41213010    0.70194993    0.10070000
opls_146-273    H    0.74201000    0.71546042    0.70890999    0.09990000
opls_146-274    H    0.66650021    0.75689068    0.67997016    0.12170000
opls_146-275    H    0.61823997    0.49953020    0.64334994    0.12810000
opls_140-276    H    0.63709011    0.07363959    0.68769995    0.12480000
opls_140-277    H    0.59786006    0.95772048    0.64222004    0.17260000
opls_140-278    H    0.59191017    0.20106053    0.65033001    0.17150000
opls_146-279    H    0.53734998    0.94976996    0.02104996    0.11630000
opls_144-280    H    0.59167008    0.95408993    0.09088010    0.10590000
opls_146-281    H    0.60468019    0.04925985    0.15099016    0.24580000
opls_526-282    H    0.63117994    0.08575996    0.22449010    0.11450000
opls_526-283    H    0.75577006    0.13146014    0.24501013    0.09730000
opls_146-284    H    0.72891997    0.09012023    0.17068012    0.11670000
opls_702-285    H    0.10791003    0.18056988    0.41122008    0.10490000
opls_146-286    H    0.05711013    0.21004934    0.34166007    0.11600000
opls_146-287    H    0.02175999    0.38812982    0.27646987    0.10760000
opls_146-288    H    0.04122007    0.71579957    0.27437016    0.10270000
opls_146-289    H    0.09650009    0.86594065    0.33805998    0.11820000
opls_146-290    H    0.13246992    0.69086941    0.40363004    0.09720000
opls_140-291    H    0.17341008    0.27693933    0.41205015    0.11300000
opls_140-292    H    0.17957015    0.21470985    0.46155003    0.10350000
opls_140-293    H    0.18036991    0.45674057    0.44899990    0.17150000
opls_146-294    H    0.61859992    0.05679060    0.52362005    0.09720000
opls_144-295    H    0.63238014    0.03177983    0.46781009    0.10570000
opls_146-296    H    0.67010991    0.20545000    0.45061001    0.11740000
opls_526-297    H    0.71695000    0.23626937    0.42342005    0.09720000
opls_526-298    H    0.61682005    0.09995969    0.30071004    0.11710000
opls_146-299    H    0.57013989    0.06453958    0.32856000    0.24580000
opls_702-300    H    0.43124001    0.79521023    0.91744997    0.05160000
opls_146-301    H    0.46722012    0.89859059    0.00073002    0.09480000
opls_146-302    H    0.44350014    0.97095003    0.05003012    0.09720000
opls_146-303    H    0.37327014    0.10032942    0.02483013    0.11650000
opls_146-304    H    0.32652017    0.15472931    0.94970007    0.11640000
opls_146-305    H    0.34968010    0.09208006    0.90010014    0.24580000
opls_140-306    H    0.36840006    0.93470012    0.85885998    0.13560000
opls_140-307    H    0.41260995    0.95991938    0.85255991    0.11220000
opls_140-308    H    0.39417001    0.15748975    0.86874014    0.17110000
opls_146-309    H    0.08799998    0.25112933    0.59169000    0.10190000
opls_144-310    H    0.15829004    0.21042046    0.60435018    0.10220000
opls_146-311    H    0.22563014    0.17943012    0.64311014    0.11910000
opls_526-312    H    0.30016008    0.12901939    0.67738992    0.10860000
opls_526-313    H    0.29878006    0.26385016    0.56354991    0.11150000
opls_146-314    H    0.22424004    0.31989019    0.52970002    0.09720000
opls_702-315    H    0.44465016    0.83455000    0.31593015    0.09470000
opls_146-316    H    0.37247010    0.84632011    0.27163015    0.11780000
opls_146-317    H    0.30808996    0.01507957    0.22518011    0.12940000
opls_146-318    H    0.31003001    0.35248037    0.21278005    0.09610000
opls_146-319    H    0.37697996    0.52149976    0.24707014    0.11780000
opls_146-320    H    0.44166005    0.35666968    0.29417986    0.11110000
opls_140-321    H    0.46763002    0.94925985    0.26673009    0.10320000
opls_140-322    H    0.50937987    0.90185002    0.31816992    0.11300000
opls_140-323    H    0.49442013    0.13926055    0.30195999    0.17140000
opls_146-324    H    0.63400021    0.06503996    0.96616011    0.11630000
opls_144-325    H    0.57507025    0.03356036    0.89338018    0.10690000
opls_146-326    H    0.53772994    0.95752033    0.82594990    0.12340000
opls_526-327    H    0.49539002    0.97208006    0.75072010    0.11250000
opls_526-328    H    0.39857017    0.25106957    0.76181018    0.10230000
opls_146-329    H    0.44200995    0.24150949    0.83757992    0.11410000
opls_702-330    H    0.98515004    0.18014039    0.60148012    0.09470000
opls_146-331    H    0.01893014    0.07316978    0.66972015    0.12080000
opls_146-332    H    0.05374013    0.12711933    0.74510002    0.12050000
opls_146-333    H    0.06943018    0.44771979    0.77317008    0.08710000
opls_146-334    H    0.05045012    0.71623045    0.72529000    0.12060000
opls_146-335    H    0.01616004    0.66652026    0.64988012    0.11740000
opls_140-336    H    0.93094995    0.38935020    0.59858004    0.11310000
opls_140-337    H    0.93389010    0.40268955    0.55177014    0.12300000
opls_140-338    H    0.95526006    0.58590034    0.58945992    0.10490000
opls_146-339    H    0.46567019    0.97309056    0.42840014    0.09720000
opls_144-340    H    0.45128989    0.02302036    0.48455995    0.11990000
opls_146-341    H    0.41178007    0.04803947    0.51233988    0.24580000
opls_526-342    H    0.37577001    0.07986934    0.55163008    0.11740000
opls_526-343    H    0.49331004    0.05297936    0.66606003    0.09720000
opls_146-344    H    0.52881001    0.02668010    0.62673013    0.24580000
opls_702-345    H    0.74941983    0.00267010    0.05083987    0.09460000
opls_146-346    H    0.79420993    0.13597053    0.03052993    0.11600000
opls_146-347    H    0.83506005    0.39913962    0.02757014    0.11410000
opls_146-348    H    0.83414003    0.70308013    0.05847993    0.11670000
opls_146-349    H    0.79195999    0.74344986    0.09238985    0.12010000
opls_146-350    H    0.74970992    0.48524984    0.09455991    0.11150000
opls_140-351    H    0.79350017    0.05444993    0.12770011    0.13560000
opls_140-352    H    0.74429989    0.94869970    0.11293990    0.16870000
opls_140-353    H    0.75241998    0.19233025    0.12646016    0.16870000
opls_146-354    H    0.96778009    0.85497950    0.56055010    0.11710000
opls_144-355    H    0.03665002    0.89559942    0.57382994    0.10030000
opls_146-356    H    0.09638002    0.78720967    0.61942991    0.11630000
opls_526-357    H    0.16987013    0.74874974    0.66567017    0.11640000
opls_526-358    H    0.18966990    0.73738967    0.56073988    0.11250000
opls_146-359    H    0.11508008    0.77712975    0.51393998    0.22930000
opls_702-360    H    0.34439993    0.51897978    0.36818004    0.08070000
opls_146-361    H    0.27793997    0.65074015    0.33363014    0.11460000
opls_146-362    H    0.23046004    0.91213010    0.29805007    0.10070000
opls_146-363    H    0.25799000    0.21546042    0.29109001    0.09990000
opls_146-364    H    0.33350022    0.25689068    0.32003015    0.12170000
opls_146-365    H    0.38176003    0.99953020    0.35665006    0.12810000
opls_140-366    H    0.36291015    0.57363959    0.31230005    0.12480000
opls_140-367    H    0.40213994    0.45772048    0.35777996    0.17260000
opls_140-368    H    0.40809010    0.70106053    0.34966999    0.17150000
opls_146-369    H    0.46265002    0.44976996    0.97895004    0.11630000
opls_144-370    H    0.40832992    0.45408993    0.90911990    0.10590000
opls_146-371    H    0.39532024    0.54925985    0.84901016    0.24590000
opls_526-372    H    0.36882006    0.58575996    0.77550990    0.11450000
opls_526-373    H    0.24423010    0.63146014    0.75499018    0.09720000
opls_146-374    H    0.27108019    0.59012023    0.82932019    0.11670000
opls_702-375    H    0.89208997    0.68056988    0.58877992    0.10490000
opls_146-376    H    0.94289014    0.71004934    0.65833993    0.11600000
opls_146-377    H    0.97824001    0.88812982    0.72353013    0.10760000
opls_146-378    H    0.95878009    0.21579957    0.72563016    0.10270000
opls_146-379    H    0.90350018    0.36594065    0.66194002    0.11830000
opls_146-380    H    0.86753008    0.19086941    0.59636996    0.09720000
opls_140-381    H    0.82659008    0.77693933    0.58795016    0.11300000
opls_140-382    H    0.82043012    0.71470985    0.53844997    0.10350000
opls_140-383    H    0.81963009    0.95674057    0.55100010    0.17150000
opls_146-384    H    0.38140008    0.55679060    0.47637995    0.09730000
opls_144-385    H    0.36761986    0.53177983    0.53218991    0.10570000
opls_146-386    H    0.32989009    0.70545000    0.54938999    0.11740000
opls_526-387    H    0.28305000    0.73626937    0.57657995    0.09720000
opls_526-388    H    0.38317995    0.59995969    0.69928996    0.11710000
opls_146-389    H    0.42986011    0.56453958    0.67144000    0.24580000
opls_702-390    H    0.56875999    0.29521023    0.08255003    0.05160000
opls_146-391    H    0.53277988    0.39859059    0.99926998    0.09480000
opls_146-392    H    0.55650002    0.47095003    0.94997019    0.09720000
opls_146-393    H    0.62673001    0.60032942    0.97517018    0.11650000
opls_146-394    H    0.67348010    0.65472931    0.05029993    0.11640000
opls_146-395    H    0.65031990    0.59208006    0.09989986    0.24580000
opls_140-396    H    0.63159994    0.43470012    0.14114002    0.13560000
opls_140-397    H    0.58739005    0.45991938    0.14744009    0.11220000
opls_140-398    H    0.60582999    0.65748975    0.13125986    0.17110000
opls_146-399    H    0.91200002    0.75112933    0.40831000    0.10190000
opls_144-400    H    0.84171012    0.71042046    0.39565013    0.10220000
opls_146-401    H    0.77437002    0.67943012    0.35689017    0.11910000
opls_526-402    H    0.69984019    0.62901939    0.32261008    0.10860000
opls_526-403    H    0.70121994    0.76385016    0.43645009    0.11150000
opls_146-404    H    0.77575996    0.81989019    0.47029998    0.09720000
opls_702-405    H    0.55535000    0.33455000    0.68407017    0.09470000
opls_146-406    H    0.62753006    0.34632011    0.72837016    0.11790000
opls_146-407    H    0.69191004    0.51507957    0.77481989    0.12940000
opls_146-408    H    0.68996999    0.85248037    0.78721995    0.09610000
opls_146-409    H    0.62302020    0.02149976    0.75293017    0.11780000
opls_146-410    H    0.55834022    0.85666968    0.70582014    0.11110000
opls_140-411    H    0.53236998    0.44925985    0.73326991    0.10320000
opls_140-412    H    0.49062013    0.40185002    0.68183008    0.11300000
opls_140-413    H    0.50558014    0.63926055    0.69804001    0.17140000
opls_146-414    H    0.36600005    0.56503996    0.03383989    0.11630000
opls_144-415    H    0.42493018    0.53356036    0.10662013    0.10690000
opls_146-416    H    0.46227006    0.45752033    0.17405010    0.12340000
opls_526-417    H    0.50460998    0.47208006    0.24927990    0.11250000
opls_526-418    H    0.60142999    0.75106957    0.23819013    0.10230000
opls_146-419    H    0.55799005    0.74150949    0.16242008    0.11410000
opls_702-420    H    0.01484996    0.68014039    0.39851988    0.09470000
opls_146-421    H    0.98107002    0.57316978    0.33028016    0.12070000
opls_146-422    H    0.94626013    0.62711933    0.25489998    0.12050000
opls_146-423    H    0.93057009    0.94771979    0.22682992    0.08710000
opls_146-424    H    0.94954988    0.21623045    0.27471000    0.12060000
opls_146-425    H    0.98383996    0.16652026    0.35011988    0.11740000
opls_140-426    H    0.06905005    0.88935020    0.40141996    0.11310000
opls_140-427    H    0.06611006    0.90268955    0.44823017    0.12440000
opls_140-428    H    0.04473994    0.08590034    0.41054008    0.10490000
opls_146-429    H    0.53433024    0.47309056    0.57160017    0.09720000
opls_144-430    H    0.54871011    0.52302036    0.51544005    0.11990000
opls_146-431    H    0.58822019    0.54803947    0.48766012    0.24580000
opls_526-432    H    0.62422999    0.57986934    0.44836992    0.11750000
opls_526-433    H    0.50668996    0.55297936    0.33393997    0.09720000
opls_146-434    H    0.47118999    0.52668010    0.37326987    0.24580000
opls_702-435    H    0.25058017    0.50267010    0.94916013    0.09460000
opls_146-436    H    0.20579007    0.63597053    0.96947007    0.11600000
opls_146-437    H    0.16494011    0.89913962    0.97243017    0.11410000
opls_146-438    H    0.16585997    0.20308013    0.94152007    0.11670000
opls_146-439    H    0.20804001    0.24344986    0.90761015    0.12010000
opls_146-440    H    0.25029008    0.98524984    0.90544009    0.11150000
opls_140-441    H    0.20650010    0.55444993    0.87229989    0.13560000
opls_140-442    H    0.25570011    0.44869970    0.88706010    0.16870000
opls_140-443    H    0.24758018    0.69233025    0.87354015    0.16870000
opls_473-444    O    0.57569999    0.04745014    0.56283990    -0.27420000
opls_466-445    O    0.60948009    0.32145945    0.56893989    -0.49720000
opls_473-446    O    0.11304987    0.28016957    0.48175992    -0.27890000
opls_466-447    O    0.09619003    0.55794982    0.44770993    -0.44860000
opls_473-448    O    0.50302020    0.91285009    0.94080005    -0.26570000
opls_466-449    O    0.47469001    0.19970950    0.93685011    -0.48300000
opls_473-450    O    0.51015013    0.98042949    0.38927002    -0.26530000
opls_466-451    O    0.45410020    0.17163945    0.36908014    -0.49690000
opls_473-452    O    0.00531000    0.30932935    0.54788992    -0.27730000
opls_466-453    O    0.04684018    0.48836055    0.60477006    -0.42860000
opls_473-454    O    0.67218018    0.04918062    0.05009015    -0.27900000
opls_466-455    O    0.68393996    0.29001042    0.01697997    -0.46430000
opls_473-456    O    0.42430001    0.54745014    0.43716010    -0.27430000
opls_466-457    O    0.39052018    0.82145945    0.43106011    -0.49720000
opls_473-458    O    0.88695013    0.78016957    0.51824008    -0.27890000
opls_466-459    O    0.90380997    0.05794982    0.55229007    -0.44860000
opls_473-460    O    0.49698007    0.41285009    0.05919995    -0.26560000
opls_466-461    O    0.52530999    0.69970950    0.06314989    -0.48300000
opls_473-462    O    0.48985014    0.48042949    0.61072998    -0.26530000
opls_466-463    O    0.54590023    0.67163945    0.63092017    -0.49690000
opls_473-464    O    0.99469000    0.80932935    0.45211008    -0.27730000
opls_466-465    O    0.95316009    0.98836055    0.39522994    -0.42860000
opls_473-466    O    0.32782025    0.54918062    0.94991016    -0.27900000
opls_466-467    O    0.31606004    0.79001042    0.98302003    -0.46440000
