#======================================================================
# Crystal Data Generated By AuToFF
#----------------------------------------------------------------------

data_AuToFF_phase_1

_cell_length_a                         70.2100
_cell_length_b                         70.2100
_cell_length_c                         6.4900
_cell_angle_alpha                      90.00
_cell_angle_beta                       90.00
_cell_angle_gamma                      120.00
_symmetry_space_group_name_H-M_alt     'P 1'
_symmetry_space_group_IT_number        1

loop_
_space_group_symop_operation_xyz
   'x, y, z'

loop_
   _atom_site_label
   _atom_site_type_symbol
   _atom_site_fract_x
   _atom_site_fract_y
   _atom_site_fract_z
   _atom_site_charge
opls_145-0    C    0.54536996    0.12346004    0.25000000    -0.21050000
opls_624-1    C    0.54773992    0.10524995    0.25000000    0.14090000
opls_700-2    C    0.58615998    0.14685009    0.25000000    0.01300000
opls_145-3    C    0.54699000    0.03796006    0.25000000    -0.18140000
opls_700-4    C    0.53809995    0.01494993    0.25000000    0.06080000
opls_700-5    C    0.55449996    0.16324006    0.25000000    0.06400000
opls_700-6    C    0.47577001    0.99607014    0.25000000    0.06340000
opls_145-7    C    0.56615998    0.18706002    0.25000000    -0.13480000
opls_145-8    C    0.55631000    0.20006993    0.25000000    -0.13240000
opls_700-9    C    0.53373002    0.19110994    0.25000000    0.04310000
opls_145-10    C    0.52102999    0.16844995    0.25000000    -0.11470000
opls_145-11    C    0.53087006    0.15519005    0.25000000    -0.11740000
opls_145-12    C    0.57617003    0.01805007    0.25000000    -0.13540000
opls_145-13    C    0.58968000    0.00869997    0.25000000    -0.12290000
opls_700-14    C    0.58059006    0.98588999    0.25000000    0.05120000
opls_145-15    C    0.55768006    0.97252007    0.25000000    -0.12370000
opls_145-16    C    0.54410003    0.98173004    0.25000000    -0.13350000
opls_145-17    C    0.71436002    0.24890007    0.25000000    0.18210000
opls_145-18    C    0.71451998    0.26911004    0.25000000    -0.16940000
opls_145-19    C    0.75471007    0.26983006    0.25000000    -0.19790000
opls_145-20    C    0.59829006    0.94298006    0.25000000    0.18670000
opls_145-21    C    0.58576002    0.92000002    0.25000000    -0.17200000
opls_145-22    C    0.63153007    0.94033005    0.25000000    -0.17560000
opls_627-23    C    0.54352006    0.07174998    0.25000000    0.26370000
opls_700-24    C    0.53355006    0.04742002    0.25000000    -0.00230000
opls_145-25    C    0.51485998    0.00171996    0.25000000    -0.18460000
opls_624-26    C    0.56712996    0.10652997    0.25000000    0.13940000
opls_145-27    C    0.58610005    0.12633997    0.25000000    -0.21170000
opls_700-28    C    0.56359997    0.14584999    0.25000000    0.02660000
opls_700-29    C    0.50071000    0.01065002    0.25000000    0.06080000
opls_145-30    C    0.51069993    0.03374995    0.25000000    -0.09920000
opls_145-31    C    0.61042005    0.16629004    0.25000000    0.06080000
opls_700-32    C    0.55289002    0.00484001    0.25000000    0.06140000
opls_145-33    C    0.63029005    0.16490000    0.25000000    -0.11940000
opls_145-34    C    0.65147002    0.18390001    0.25000000    -0.14000000
opls_700-35    C    0.65359996    0.20480994    0.25000000    0.05640000
opls_145-36    C    0.63452005    0.20611003    0.25000000    -0.17470000
opls_145-37    C    0.61420997    0.18716001    0.25000000    -0.20740000
opls_145-38    C    0.46539998    0.97277005    0.25000000    -0.13440000
opls_145-39    C    0.44250000    0.95954009    0.25000000    -0.12290000
opls_700-40    C    0.42904998    0.96894002    0.25000000    0.05120000
opls_145-41    C    0.43886008    0.99186003    0.25000000    -0.12540000
opls_145-42    C    0.46170009    0.00516005    0.25000000    -0.13450000
opls_145-43    C    0.73411007    0.28892004    0.25000000    -0.17750000
opls_145-44    C    0.75422007    0.28960010    0.25000000    0.18890000
opls_145-45    C    0.73477006    0.24956006    0.25000000    -0.19340000
opls_145-46    C    0.59589005    0.90720013    0.25000000    -0.17260000
opls_145-47    C    0.61900002    0.91732008    0.25000000    0.18650000
opls_145-48    C    0.62140012    0.95313011    0.25000000    -0.17300000
opls_142-49    C    0.11556002    0.00818997    0.25000000    0.06780000
opls_142-50    C    0.14265008    0.12763002    0.25000000    0.06800000
opls_142-51    C    0.62191997    0.88390004    0.25000000    0.06830000
opls_142-52    C    0.59511003    0.97630010    0.25000000    0.06920000
opls_145-53    C    0.12104009    0.20964008    0.25000000    -0.21100000
opls_624-54    C    0.11867002    0.22783998    0.25000000    0.14070000
opls_700-55    C    0.08026997    0.18621007    0.25000000    0.01300000
opls_145-56    C    0.11966002    0.29540008    0.25000000    -0.16800000
opls_700-57    C    0.12872001    0.31847008    0.25000000    0.06130000
opls_700-58    C    0.11201001    0.16991006    0.25000000    0.06400000
opls_700-59    C    0.19100993    0.33692999    0.25000000    0.06290000
opls_145-60    C    0.10042002    0.14609997    0.25000000    -0.13450000
opls_145-61    C    0.11035995    0.13316999    0.25000000    -0.13690000
opls_700-62    C    0.13296999    0.14222997    0.25000000    0.05010000
opls_145-63    C    0.14557999    0.16486003    0.25000000    -0.13250000
opls_145-64    C    0.13564994    0.17802997    0.25000000    -0.11730000
opls_145-65    C    0.09080999    0.31580001    0.25000000    -0.13560000
opls_145-66    C    0.07744998    0.32534006    0.25000000    -0.12170000
opls_700-67    C    0.08669001    0.34816995    0.25000000    0.05120000
opls_145-68    C    0.10960999    0.36139004    0.25000000    -0.12340000
opls_145-69    C    0.12304997    0.35197005    0.25000000    -0.13580000
opls_145-70    C    0.95205005    0.08450004    0.25000000    0.18210000
opls_145-71    C    0.95187000    0.06429007    0.25000000    -0.16990000
opls_145-72    C    0.91171007    0.06363007    0.25000000    -0.19790000
opls_145-73    C    0.06904993    0.39120997    0.25000000    0.18630000
opls_145-74    C    0.08154995    0.41420004    0.25000000    -0.17560000
opls_145-75    C    0.03577006    0.39384007    0.25000000    -0.17500000
opls_627-76    C    0.12293003    0.26138008    0.25000000    0.26290000
opls_700-77    C    0.13299000    0.28577006    0.25000000    0.00090000
opls_145-78    C    0.15199010    0.33155005    0.25000000    -0.18400000
opls_624-79    C    0.09928001    0.22656999    0.25000000    0.13940000
opls_145-80    C    0.08032002    0.20673006    0.25000000    -0.20700000
opls_700-81    C    0.10283011    0.18723007    0.25000000    0.02640000
opls_700-82    C    0.16601996    0.32248004    0.25000000    0.06080000
opls_145-83    C    0.15586999    0.29935001    0.25000000    -0.09530000
opls_145-84    C    0.05601993    0.16676995    0.25000000    0.06160000
opls_700-85    C    0.11409991    0.32881995    0.25000000    0.06280000
opls_145-86    C    0.03618003    0.16819996    0.25000000    -0.11740000
opls_145-87    C    0.01499005    0.14925998    0.25000000    -0.13220000
opls_700-88    C    0.01280998    0.12835005    0.25000000    0.06050000
opls_145-89    C    0.03185006    0.12697003    0.25000000    -0.17470000
opls_145-90    C    0.05217997    0.14586002    0.25000000    -0.20660000
opls_145-91    C    0.20153006    0.36024998    0.25000000    -0.13550000
opls_145-92    C    0.22444006    0.37337008    0.25000000    -0.12170000
opls_700-93    C    0.23780994    0.36386999    0.25000000    0.05130000
opls_145-94    C    0.22786000    0.34093008    0.25000000    -0.12310000
opls_145-95    C    0.20499008    0.32773005    0.25000000    -0.13520000
opls_145-96    C    0.93229007    0.04452003    0.25000000    -0.17470000
opls_145-97    C    0.91222001    0.04386004    0.25000000    0.18870000
opls_145-98    C    0.93166002    0.08389004    0.25000000    -0.19530000
opls_145-99    C    0.07140000    0.42698003    0.25000000    -0.17310000
opls_145-100    C    0.04828997    0.41684001    0.25000000    0.18630000
opls_145-101    C    0.04593009    0.38105005    0.25000000    -0.17440000
opls_142-102    C    0.55128997    0.32541999    0.25000000    0.06760000
opls_142-103    C    0.52420007    0.20586004    0.25000000    0.06780000
opls_142-104    C    0.04532993    0.45023999    0.25000000    0.06770000
opls_142-105    C    0.07224993    0.35789995    0.25000000    0.06840000
opls_145-106    C    0.87654001    0.42191010    0.25000000    -0.21050000
opls_624-107    C    0.89475003    0.44248996    0.25000000    0.14090000
opls_700-108    C    0.85314997    0.43931005    0.25000000    0.01300000
opls_145-109    C    0.96204002    0.50903005    0.25000000    -0.18140000
opls_700-110    C    0.98505005    0.52315009    0.25000000    0.06080000
opls_700-111    C    0.83676002    0.39125996    0.25000000    0.06410000
opls_700-112    C    0.00393008    0.47970006    0.25000000    0.06340000
opls_145-113    C    0.81293997    0.37910000    0.25000000    -0.13490000
opls_145-114    C    0.79993001    0.35624002    0.25000000    -0.13240000
opls_700-115    C    0.80888995    0.34261995    0.25000000    0.04310000
opls_145-116    C    0.83154996    0.35258004    0.25000000    -0.11470000
opls_145-117    C    0.84480994    0.37567998    0.25000000    -0.11740000
opls_145-118    C    0.98195006    0.55812004    0.25000000    -0.13540000
opls_145-119    C    0.99130001    0.58098002    0.25000000    -0.12290000
opls_700-120    C    0.01411005    0.59470009    0.25000000    0.05120000
opls_145-121    C    0.02748003    0.58516003    0.25000000    -0.12360000
opls_145-122    C    0.01827009    0.56237011    0.25000000    -0.13350000
opls_145-123    C    0.75110001    0.46545996    0.25000000    0.18210000
opls_145-124    C    0.73089002    0.44541001    0.25000000    -0.16930000
opls_145-125    C    0.73016996    0.48488002    0.25000000    -0.19780000
opls_145-126    C    0.05702010    0.65531011    0.25000000    0.18670000
opls_145-127    C    0.08000006    0.66575998    0.25000000    -0.17200000
opls_145-128    C    0.05966997    0.69120007    0.25000000    -0.17560000
opls_627-129    C    0.92825002    0.47176995    0.25000000    0.26370000
opls_700-130    C    0.95258008    0.48613011    0.25000000    -0.00230000
opls_145-131    C    0.99828001    0.51314000    0.25000000    -0.18480000
opls_624-132    C    0.89347009    0.46060006    0.25000000    0.13940000
opls_145-133    C    0.87365993    0.45975997    0.25000000    -0.21170000
opls_700-134    C    0.85415003    0.41774999    0.25000000    0.02660000
opls_700-135    C    0.98935002    0.49005997    0.25000000    0.06080000
opls_145-136    C    0.96624999    0.47695006    0.25000000    -0.09920000
opls_145-137    C    0.83371006    0.44412999    0.25000000    0.06080000
opls_700-138    C    0.99516007    0.54805008    0.25000000    0.06140000
opls_145-139    C    0.83510010    0.46539007    0.25000000    -0.11940000
opls_145-140    C    0.81610007    0.46757003    0.25000000    -0.14000000
opls_700-141    C    0.79519008    0.44879007    0.25000000    0.05650000
opls_145-142    C    0.79388997    0.42841004    0.25000000    -0.17470000
opls_145-143    C    0.81284010    0.42705009    0.25000000    -0.20740000
opls_145-144    C    0.02722999    0.49263005    0.25000000    -0.13440000
opls_145-145    C    0.04046009    0.48296007    0.25000000    -0.12290000
opls_700-146    C    0.03105996    0.46010995    0.25000000    0.05120000
opls_145-147    C    0.00813996    0.44700005    0.25000000    -0.12540000
opls_145-148    C    0.99484006    0.45654010    0.25000000    -0.13450000
opls_145-149    C    0.71107995    0.44518996    0.25000000    -0.17750000
opls_145-150    C    0.71040004    0.46462005    0.25000000    0.18900000
opls_145-151    C    0.75044011    0.48521010    0.25000000    -0.19330000
opls_145-152    C    0.09280007    0.68869002    0.25000000    -0.17250000
opls_145-153    C    0.08268007    0.70168003    0.25000000    0.18650000
opls_145-154    C    0.04686995    0.66827002    0.25000000    -0.17310000
opls_142-155    C    0.99181008    0.10737005    0.25000000    0.06780000
opls_142-156    C    0.87236999    0.01501999    0.25000000    0.06800000
opls_142-157    C    0.11610008    0.73802013    0.25000000    0.06830000
opls_142-158    C    0.02369997    0.61880999    0.25000000    0.06920000
opls_145-159    C    0.79036004    0.91140004    0.25000000    -0.21100000
opls_624-160    C    0.77216008    0.89083006    0.25000000    0.14070000
opls_700-161    C    0.81379007    0.89406013    0.25000000    0.01300000
opls_145-162    C    0.70460003    0.82426003    0.25000000    -0.16800000
opls_700-163    C    0.68153008    0.81025001    0.25000000    0.06130000
opls_700-164    C    0.83009003    0.94210001    0.25000000    0.06410000
opls_700-165    C    0.66307011    0.85408012    0.25000000    0.06290000
opls_145-166    C    0.85390007    0.95432000    0.25000000    -0.13450000
opls_145-167    C    0.86683002    0.97719002    0.25000000    -0.13690000
opls_700-168    C    0.85776996    0.99074003    0.25000000    0.05010000
opls_145-169    C    0.83513998    0.98072007    0.25000000    -0.13240000
opls_145-170    C    0.82197002    0.95762014    0.25000000    -0.11730000
opls_145-171    C    0.68420007    0.77501002    0.25000000    -0.13560000
opls_145-172    C    0.67466008    0.75211007    0.25000000    -0.12170000
opls_700-173    C    0.65183005    0.73852010    0.25000000    0.05120000
opls_145-174    C    0.63860993    0.74822001    0.25000000    -0.12340000
opls_145-175    C    0.64802995    0.77107999    0.25000000    -0.13560000
opls_145-176    C    0.91549999    0.86755003    0.25000000    0.18210000
opls_145-177    C    0.93571000    0.88758009    0.25000000    -0.16980000
opls_145-178    C    0.93637000    0.84807998    0.25000000    -0.19790000
opls_145-179    C    0.60878997    0.67784001    0.25000000    0.18630000
opls_145-180    C    0.58580006    0.66735001    0.25000000    -0.17560000
opls_145-181    C    0.60615998    0.64192999    0.25000000    -0.17490000
opls_627-182    C    0.73862007    0.86155007    0.25000000    0.26280000
opls_700-183    C    0.71423000    0.84722000    0.25000000    0.00090000
opls_145-184    C    0.66845004    0.82044003    0.25000000    -0.18400000
opls_624-185    C    0.77343010    0.87271009    0.25000000    0.13940000
opls_145-186    C    0.79327007    0.87359013    0.25000000    -0.20710000
opls_700-187    C    0.81277001    0.91560012    0.25000000    0.02640000
opls_700-188    C    0.67752010    0.84354012    0.25000000    0.06080000
opls_145-189    C    0.70065002    0.85652010    0.25000000    -0.09530000
opls_145-190    C    0.83323007    0.88925005    0.25000000    0.06160000
opls_700-191    C    0.67118001    0.78528012    0.25000000    0.06280000
opls_145-192    C    0.83180005    0.86798011    0.25000000    -0.11740000
opls_145-193    C    0.85073999    0.86573008    0.25000000    -0.13220000
opls_700-194    C    0.87165005    0.88446004    0.25000000    0.06050000
opls_145-195    C    0.87302996    0.90488004    0.25000000    -0.17470000
opls_145-196    C    0.85414010    0.90632008    0.25000000    -0.20670000
opls_145-197    C    0.63974999    0.84128006    0.25000000    -0.13550000
opls_145-198    C    0.62663005    0.85107010    0.25000000    -0.12170000
opls_700-199    C    0.63613001    0.87394011    0.25000000    0.05130000
opls_145-200    C    0.65907010    0.88693012    0.25000000    -0.12310000
opls_145-201    C    0.67226993    0.87725998    0.25000000    -0.13520000
opls_145-202    C    0.95547995    0.88777004    0.25000000    -0.17460000
opls_145-203    C    0.95613999    0.86836002    0.25000000    0.18870000
opls_145-204    C    0.91611002    0.84776997    0.25000000    -0.19520000
opls_145-205    C    0.57301998    0.64441997    0.25000000    -0.17310000
opls_145-206    C    0.58315999    0.63145003    0.25000000    0.18630000
opls_145-207    C    0.61895009    0.66488010    0.25000000    -0.17440000
opls_142-208    C    0.67458008    0.22587003    0.25000000    0.06760000
opls_142-209    C    0.79413994    0.31833999    0.25000000    0.06780000
opls_142-210    C    0.54976008    0.59509003    0.25000000    0.06770000
opls_142-211    C    0.64209994    0.71435000    0.25000000    0.06820000
opls_145-212    C    0.57808997    0.45463002    0.25000000    -0.21050000
opls_624-213    C    0.55751005    0.45226009    0.25000000    0.14090000
opls_700-214    C    0.56068999    0.41384003    0.25000000    0.01300000
opls_145-215    C    0.49097006    0.45301005    0.25000000    -0.18140000
opls_700-216    C    0.47685000    0.46189998    0.25000000    0.06080000
opls_700-217    C    0.60874002    0.44549997    0.25000000    0.06400000
opls_700-218    C    0.52030000    0.52422996    0.25000000    0.06340000
opls_145-219    C    0.62090005    0.43383998    0.25000000    -0.13490000
opls_145-220    C    0.64375999    0.44369005    0.25000000    -0.13240000
opls_700-221    C    0.65737995    0.46626995    0.25000000    0.04310000
opls_145-222    C    0.64742006    0.47897001    0.25000000    -0.11470000
opls_145-223    C    0.62432001    0.46912997    0.25000000    -0.11740000
opls_145-224    C    0.44187999    0.42383005    0.25000000    -0.13540000
opls_145-225    C    0.41902000    0.41032001    0.25000000    -0.12290000
opls_700-226    C    0.40529997    0.41941009    0.25000000    0.05120000
opls_145-227    C    0.41483999    0.44232007    0.25000000    -0.12370000
opls_145-228    C    0.43762996    0.45590001    0.25000000    -0.13350000
opls_145-229    C    0.53453997    0.28563997    0.25000000    0.18210000
opls_145-230    C    0.55459000    0.28547995    0.25000000    -0.16940000
opls_145-231    C    0.51512005    0.24529008    0.25000000    -0.19790000
opls_145-232    C    0.34469006    0.40171000    0.25000000    0.18670000
opls_145-233    C    0.33424007    0.41424000    0.25000000    -0.17190000
opls_145-234    C    0.30880004    0.36847005    0.25000000    -0.17560000
opls_627-235    C    0.52823007    0.45648007    0.25000000    0.26360000
opls_700-236    C    0.51387008    0.46645003    0.25000000    -0.00230000
opls_145-237    C    0.48686000    0.48514003    0.25000000    -0.18480000
opls_624-238    C    0.53939995    0.43286997    0.25000000    0.13940000
opls_145-239    C    0.54024002    0.41390006    0.25000000    -0.21170000
opls_700-240    C    0.58225001    0.43640002    0.25000000    0.02660000
opls_700-241    C    0.50993998    0.49929001    0.25000000    0.06080000
opls_145-242    C    0.52304993    0.48929998    0.25000000    -0.09920000
opls_145-243    C    0.55587003    0.38957997    0.25000000    0.06080000
opls_700-244    C    0.45195000    0.44711007    0.25000000    0.06140000
opls_145-245    C    0.53461007    0.36971010    0.25000000    -0.11940000
opls_145-246    C    0.53242991    0.34852996    0.25000000    -0.14000000
opls_700-247    C    0.55120996    0.34639999    0.25000000    0.05640000
opls_145-248    C    0.57159007    0.36548009    0.25000000    -0.17470000
opls_145-249    C    0.57295001    0.38579006    0.25000000    -0.20740000
opls_145-250    C    0.50736997    0.53460007    0.25000000    -0.13430000
opls_145-251    C    0.51703999    0.55750001    0.25000000    -0.12290000
opls_700-252    C    0.53989005    0.57095003    0.25000000    0.05120000
opls_145-253    C    0.55300004    0.56114009    0.25000000    -0.12540000
opls_145-254    C    0.54346007    0.53830001    0.25000000    -0.13450000
opls_145-255    C    0.55480998    0.26589000    0.25000000    -0.17750000
opls_145-256    C    0.53537997    0.24578002    0.25000000    0.18890000
opls_145-257    C    0.51479005    0.26523001    0.25000000    -0.19340000
opls_145-258    C    0.31130996    0.40411002    0.25000000    -0.17260000
opls_145-259    C    0.29831999    0.38100005    0.25000000    0.18650000
opls_145-260    C    0.33173001    0.37860003    0.25000000    -0.17310000
opls_142-261    C    0.89263004    0.88443998    0.25000000    0.06780000
opls_142-262    C    0.98497994    0.85734999    0.25000000    0.06800000
opls_142-263    C    0.26198004    0.37808000    0.25000000    0.06830000
opls_142-264    C    0.38119009    0.40489007    0.25000000    0.06920000
opls_145-265    C    0.08860009    0.87896004    0.25000000    -0.21090000
opls_624-266    C    0.10917012    0.88133013    0.25000000    0.14080000
opls_700-267    C    0.10594013    0.91973013    0.25000000    0.01300000
opls_145-268    C    0.17574003    0.88034006    0.25000000    -0.16800000
opls_700-269    C    0.18974999    0.87128007    0.25000000    0.06130000
opls_700-270    C    0.05790005    0.88799009    0.25000000    0.06400000
opls_700-271    C    0.14592004    0.80899005    0.25000000    0.06290000
opls_145-272    C    0.04568006    0.89958003    0.25000000    -0.13450000
opls_145-273    C    0.02281003    0.88964000    0.25000000    -0.13690000
opls_700-274    C    0.00926005    0.86703000    0.25000000    0.05010000
opls_145-275    C    0.01927997    0.85442006    0.25000000    -0.13250000
opls_145-276    C    0.04237999    0.86435006    0.25000000    -0.11730000
opls_145-277    C    0.22498995    0.90918998    0.25000000    -0.13560000
opls_145-278    C    0.24789003    0.92255003    0.25000000    -0.12170000
opls_700-279    C    0.26148002    0.91331012    0.25000000    0.05120000
opls_145-280    C    0.25178002    0.89039011    0.25000000    -0.12340000
opls_145-281    C    0.22892002    0.87695013    0.25000000    -0.13560000
opls_145-282    C    0.13244997    0.04794993    0.25000000    0.18210000
opls_145-283    C    0.11241994    0.04813001    0.25000000    -0.16990000
opls_145-284    C    0.15191993    0.08828994    0.25000000    -0.19780000
opls_145-285    C    0.32215996    0.93095002    0.25000000    0.18630000
opls_145-286    C    0.33265007    0.91845011    0.25000000    -0.17560000
opls_145-287    C    0.35807004    0.96423010    0.25000000    -0.17500000
opls_627-288    C    0.13844998    0.87707002    0.25000000    0.26280000
opls_700-289    C    0.15278008    0.86701010    0.25000000    0.00090000
opls_145-290    C    0.17956009    0.84801009    0.25000000    -0.18400000
opls_624-291    C    0.12729011    0.90072009    0.25000000    0.13940000
opls_145-292    C    0.12640999    0.91967997    0.25000000    -0.20710000
opls_700-293    C    0.08439997    0.89716997    0.25000000    0.02640000
opls_700-294    C    0.15646002    0.83398001    0.25000000    0.06080000
opls_145-295    C    0.14348007    0.84413006    0.25000000    -0.09530000
opls_145-296    C    0.11075000    0.94398000    0.25000000    0.06160000
opls_700-297    C    0.21472002    0.88590009    0.25000000    0.06280000
opls_145-298    C    0.13202000    0.96382009    0.25000000    -0.11740000
opls_145-299    C    0.13427004    0.98501011    0.25000000    -0.13220000
opls_700-300    C    0.11554006    0.98719008    0.25000000    0.06050000
opls_145-301    C    0.09512006    0.96815010    0.25000000    -0.17470000
opls_145-302    C    0.09368001    0.94782006    0.25000000    -0.20670000
opls_145-303    C    0.15872004    0.79847012    0.25000000    -0.13550000
opls_145-304    C    0.14892997    0.77555998    0.25000000    -0.12170000
opls_700-305    C    0.12605999    0.76219006    0.25000000    0.05130000
opls_145-306    C    0.11307006    0.77214012    0.25000000    -0.12310000
opls_145-307    C    0.12273999    0.79500997    0.25000000    -0.13520000
opls_145-308    C    0.11222998    0.06770993    0.25000000    -0.17470000
opls_145-309    C    0.13164001    0.08777994    0.25000000    0.18870000
opls_145-310    C    0.15222996    0.06833999    0.25000000    -0.19520000
opls_145-311    C    0.35558002    0.92860000    0.25000000    -0.17310000
opls_145-312    C    0.36855012    0.95171013    0.25000000    0.18630000
opls_145-313    C    0.33512004    0.95407002    0.25000000    -0.17440000
opls_142-314    C    0.77412995    0.44870998    0.25000000    0.06760000
opls_142-315    C    0.68165999    0.47579997    0.25000000    0.06790000
opls_142-316    C    0.40490998    0.95466998    0.25000000    0.06770000
opls_142-317    C    0.28564999    0.92775005    0.25000000    0.06820000
opls_145-318    C    0.45463012    0.87654012    0.75000000    -0.21050000
opls_624-319    C    0.45226008    0.89475005    0.75000000    0.14090000
opls_700-320    C    0.41384010    0.85315007    0.75000000    0.01300000
opls_145-321    C    0.45301008    0.96204010    0.75000000    -0.18130000
opls_700-322    C    0.46190005    0.98505007    0.75000000    0.06080000
opls_700-323    C    0.44550012    0.83676010    0.75000000    0.06400000
opls_700-324    C    0.52423008    0.00393003    0.75000000    0.06340000
opls_145-325    C    0.43384002    0.81293998    0.75000000    -0.13490000
opls_145-326    C    0.44369000    0.79993007    0.75000000    -0.13240000
opls_700-327    C    0.46626998    0.80889006    0.75000000    0.04310000
opls_145-328    C    0.47897001    0.83155005    0.75000000    -0.11470000
opls_145-329    C    0.46913002    0.84481011    0.75000000    -0.11740000
opls_145-330    C    0.42383005    0.98195009    0.75000000    -0.13540000
opls_145-331    C    0.41032000    0.99130003    0.75000000    -0.12290000
opls_700-332    C    0.41940994    0.01411001    0.75000000    0.05120000
opls_145-333    C    0.44231994    0.02747993    0.75000000    -0.12370000
opls_145-334    C    0.45589997    0.01826996    0.75000000    -0.13350000
opls_145-335    C    0.28564006    0.75110010    0.75000000    0.18210000
opls_145-336    C    0.28548010    0.73089012    0.75000000    -0.16940000
opls_145-337    C    0.24529001    0.73017010    0.75000000    -0.19780000
opls_145-338    C    0.40170994    0.05701994    0.75000000    0.18680000
opls_145-339    C    0.41423998    0.07999998    0.75000000    -0.17200000
opls_145-340    C    0.36846993    0.05966995    0.75000000    -0.17560000
opls_627-341    C    0.45647994    0.92825002    0.75000000    0.26360000
opls_700-342    C    0.46644994    0.95257998    0.75000000    -0.00230000
opls_145-343    C    0.48514002    0.99828004    0.75000000    -0.18470000
opls_624-344    C    0.43287004    0.89347003    0.75000000    0.13940000
opls_145-345    C    0.41389995    0.87366003    0.75000000    -0.21170000
opls_700-346    C    0.43640003    0.85415001    0.75000000    0.02660000
opls_700-347    C    0.49929000    0.98934998    0.75000000    0.06080000
opls_145-348    C    0.48930007    0.96625005    0.75000000    -0.09920000
opls_145-349    C    0.38958003    0.83371012    0.75000000    0.06080000
opls_700-350    C    0.44710998    0.99515999    0.75000000    0.06140000
opls_145-351    C    0.36970995    0.83510000    0.75000000    -0.11940000
opls_145-352    C    0.34852998    0.81609999    0.75000000    -0.14000000
opls_700-353    C    0.34640004    0.79519006    0.75000000    0.05640000
opls_145-354    C    0.36547995    0.79388997    0.75000000    -0.17470000
opls_145-355    C    0.38579003    0.81283999    0.75000000    -0.20740000
opls_145-356    C    0.53460002    0.02722995    0.75000000    -0.13440000
opls_145-357    C    0.55750009    0.04046008    0.75000000    -0.12290000
opls_700-358    C    0.57095002    0.03105998    0.75000000    0.05120000
opls_145-359    C    0.56113992    0.00813997    0.75000000    -0.12540000
opls_145-360    C    0.53829999    0.99484011    0.75000000    -0.13440000
opls_145-361    C    0.26588993    0.71107996    0.75000000    -0.17750000
opls_145-362    C    0.24578001    0.71040007    0.75000000    0.18890000
opls_145-363    C    0.26523002    0.75044011    0.75000000    -0.19340000
opls_145-364    C    0.40411003    0.09280004    0.75000000    -0.17260000
opls_145-365    C    0.38100006    0.08268008    0.75000000    0.18650000
opls_145-366    C    0.37859996    0.04687006    0.75000000    -0.17300000
opls_142-367    C    0.88443998    0.99181003    0.75000000    0.06780000
opls_142-368    C    0.85734992    0.87236998    0.75000000    0.06800000
opls_142-369    C    0.37808003    0.11609996    0.75000000    0.06830000
opls_142-370    C    0.40489005    0.02370006    0.75000000    0.06920000
opls_145-371    C    0.87895999    0.79036008    0.75000000    -0.21100000
opls_624-372    C    0.88132998    0.77216002    0.75000000    0.14070000
opls_700-373    C    0.91973011    0.81379010    0.75000000    0.01300000
opls_145-374    C    0.88034007    0.70460009    0.75000000    -0.16800000
opls_700-375    C    0.87128007    0.68153009    0.75000000    0.06130000
opls_700-376    C    0.88799008    0.83009011    0.75000000    0.06400000
opls_700-377    C    0.80899007    0.66307001    0.75000000    0.06290000
opls_145-378    C    0.89957998    0.85390003    0.75000000    -0.13440000
opls_145-379    C    0.88964005    0.86683001    0.75000000    -0.13680000
opls_700-380    C    0.86703001    0.85777003    0.75000000    0.05010000
opls_145-381    C    0.85442001    0.83513997    0.75000000    -0.13250000
opls_145-382    C    0.86435006    0.82197003    0.75000000    -0.11730000
opls_145-383    C    0.90919001    0.68419999    0.75000000    -0.13560000
opls_145-384    C    0.92255011    0.67466010    0.75000000    -0.12170000
opls_700-385    C    0.91330999    0.65183005    0.75000000    0.05120000
opls_145-386    C    0.89039001    0.63860996    0.75000000    -0.12340000
opls_145-387    C    0.87695011    0.64803012    0.75000000    -0.13580000
opls_145-388    C    0.04795003    0.91550012    0.75000000    0.18210000
opls_145-389    C    0.04813008    0.93571010    0.75000000    -0.16990000
opls_145-390    C    0.08829002    0.93637009    0.75000000    -0.19790000
opls_145-391    C    0.93095007    0.60879003    0.75000000    0.18630000
opls_145-392    C    0.91845005    0.58579996    0.75000000    -0.17560000
opls_145-393    C    0.96423002    0.60616009    0.75000000    -0.17500000
opls_627-394    C    0.87707005    0.73862009    0.75000000    0.26280000
opls_700-395    C    0.86701008    0.71423010    0.75000000    0.00090000
opls_145-396    C    0.84800999    0.66845011    0.75000000    -0.18400000
opls_624-397    C    0.90071999    0.77343001    0.75000000    0.13940000
opls_145-398    C    0.91968006    0.79327011    0.75000000    -0.20710000
opls_700-399    C    0.89716998    0.81277009    0.75000000    0.02640000
opls_700-400    C    0.83398004    0.67751996    0.75000000    0.06090000
opls_145-401    C    0.84413001    0.70064999    0.75000000    -0.09530000
opls_145-402    C    0.94398007    0.83323005    0.75000000    0.06160000
opls_700-403    C    0.88590009    0.67118005    0.75000000    0.06280000
opls_145-404    C    0.96381997    0.83180004    0.75000000    -0.11740000
opls_145-405    C    0.98500995    0.85074002    0.75000000    -0.13210000
opls_700-406    C    0.98719011    0.87165012    0.75000000    0.06060000
opls_145-407    C    0.96814994    0.87302997    0.75000000    -0.17470000
opls_145-408    C    0.94782003    0.85413998    0.75000000    -0.20670000
opls_145-409    C    0.79846994    0.63975002    0.75000000    -0.13550000
opls_145-410    C    0.77556002    0.62663008    0.75000000    -0.12170000
opls_700-411    C    0.76219006    0.63613001    0.75000000    0.05130000
opls_145-412    C    0.77214008    0.65907008    0.75000000    -0.12310000
opls_145-413    C    0.79501000    0.67227011    0.75000000    -0.13520000
opls_145-414    C    0.06771001    0.95548013    0.75000000    -0.17470000
opls_145-415    C    0.08778008    0.95614013    0.75000000    0.18870000
opls_145-416    C    0.06834006    0.91611012    0.75000000    -0.19530000
opls_145-417    C    0.92860000    0.57301997    0.75000000    -0.17310000
opls_145-418    C    0.95171003    0.58315999    0.75000000    0.18630000
opls_145-419    C    0.95406999    0.61895012    0.75000000    -0.17440000
opls_142-420    C    0.44871003    0.67458001    0.75000000    0.06760000
opls_142-421    C    0.47580001    0.79414012    0.75000000    0.06780000
opls_142-422    C    0.95467007    0.54976001    0.75000000    0.06770000
opls_142-423    C    0.92775007    0.64210005    0.75000000    0.06820000
opls_145-424    C    0.12346007    0.57809006    0.75000000    -0.21050000
opls_624-425    C    0.10524997    0.55751004    0.75000000    0.14090000
opls_700-426    C    0.14685003    0.56068995    0.75000000    0.01300000
opls_145-427    C    0.03795998    0.49096995    0.75000000    -0.18140000
opls_700-428    C    0.01495003    0.47685007    0.75000000    0.06080000
opls_700-429    C    0.16323998    0.60874004    0.75000000    0.06400000
opls_700-430    C    0.99607000    0.52030010    0.75000000    0.06340000
opls_145-431    C    0.18706003    0.62090000    0.75000000    -0.13490000
opls_145-432    C    0.20006999    0.64375998    0.75000000    -0.13240000
opls_700-433    C    0.19111005    0.65738005    0.75000000    0.04310000
opls_145-434    C    0.16845004    0.64741996    0.75000000    -0.11470000
opls_145-435    C    0.15519006    0.62432002    0.75000000    -0.11740000
opls_145-436    C    0.01804994    0.44187996    0.75000000    -0.13540000
opls_145-437    C    0.00869999    0.41901998    0.75000000    -0.12290000
opls_700-438    C    0.98589003    0.40530008    0.75000000    0.05120000
opls_145-439    C    0.97251997    0.41483997    0.75000000    -0.12370000
opls_145-440    C    0.98172999    0.43763005    0.75000000    -0.13350000
opls_145-441    C    0.24889999    0.53454004    0.75000000    0.18210000
opls_145-442    C    0.26910998    0.55458999    0.75000000    -0.16940000
opls_145-443    C    0.26983004    0.51511998    0.75000000    -0.19790000
opls_145-444    C    0.94297998    0.34469005    0.75000000    0.18670000
opls_145-445    C    0.91999994    0.33424002    0.75000000    -0.17200000
opls_145-446    C    0.94033012    0.30880010    0.75000000    -0.17560000
opls_627-447    C    0.07174998    0.52823005    0.75000000    0.26360000
opls_700-448    C    0.04742000    0.51387006    0.75000000    -0.00230000
opls_145-449    C    0.00171999    0.48686000    0.75000000    -0.18480000
opls_624-450    C    0.10652999    0.53940011    0.75000000    0.13940000
opls_145-451    C    0.12634007    0.54024003    0.75000000    -0.21170000
opls_700-452    C    0.14584997    0.58225001    0.75000000    0.02660000
opls_700-453    C    0.01064998    0.50994003    0.75000000    0.06080000
opls_145-454    C    0.03375009    0.52305010    0.75000000    -0.09920000
opls_145-455    C    0.16628994    0.55587001    0.75000000    0.06080000
opls_700-456    C    0.00484002    0.45195008    0.75000000    0.06140000
opls_145-457    C    0.16489998    0.53461010    0.75000000    -0.11940000
opls_145-458    C    0.18389993    0.53242997    0.75000000    -0.13990000
opls_700-459    C    0.20481000    0.55121009    0.75000000    0.05640000
opls_145-460    C    0.20611003    0.57158996    0.75000000    -0.17470000
opls_145-461    C    0.18715998    0.57295007    0.75000000    -0.20740000
opls_145-462    C    0.97277001    0.50736995    0.75000000    -0.13440000
opls_145-463    C    0.95953999    0.51704010    0.75000000    -0.12280000
opls_700-464    C    0.96894004    0.53989005    0.75000000    0.05120000
opls_145-465    C    0.99186004    0.55299995    0.75000000    -0.12540000
opls_145-466    C    0.00516003    0.54346006    0.75000000    -0.13450000
opls_145-467    C    0.28892005    0.55481004    0.75000000    -0.17750000
opls_145-468    C    0.28959996    0.53537995    0.75000000    0.18890000
opls_145-469    C    0.24955997    0.51479007    0.75000000    -0.19330000
opls_145-470    C    0.90719993    0.31130998    0.75000000    -0.17260000
opls_145-471    C    0.91731993    0.29831997    0.75000000    0.18650000
opls_145-472    C    0.95313005    0.33172998    0.75000000    -0.17310000
opls_142-473    C    0.00819000    0.89263011    0.75000000    0.06780000
opls_142-474    C    0.12763001    0.98498001    0.75000000    0.06800000
opls_142-475    C    0.88390000    0.26198004    0.75000000    0.06830000
opls_142-476    C    0.97630003    0.38119001    0.75000000    0.06860000
opls_145-477    C    0.20963996    0.08859996    0.75000000    -0.21100000
opls_624-478    C    0.22783992    0.10916994    0.75000000    0.14070000
opls_700-479    C    0.18621001    0.10594004    0.75000000    0.01300000
opls_145-480    C    0.29539997    0.17573997    0.75000000    -0.16800000
opls_700-481    C    0.31846992    0.18974999    0.75000000    0.06130000
opls_700-482    C    0.16990997    0.05789999    0.75000000    0.06400000
opls_700-483    C    0.33692997    0.14592005    0.75000000    0.06290000
opls_145-484    C    0.14609993    0.04568000    0.75000000    -0.13450000
opls_145-485    C    0.13316998    0.02280998    0.75000000    -0.13690000
opls_700-486    C    0.14223004    0.00925997    0.75000000    0.05010000
opls_145-487    C    0.16486002    0.01927993    0.75000000    -0.13250000
opls_145-488    C    0.17803007    0.04238003    0.75000000    -0.11730000
opls_145-489    C    0.31579993    0.22498998    0.75000000    -0.13550000
opls_145-490    C    0.32534000    0.24789009    0.75000000    -0.12170000
opls_700-491    C    0.34817003    0.26148007    0.75000000    0.05120000
opls_145-492    C    0.36139007    0.25177999    0.75000000    -0.12340000
opls_145-493    C    0.35197005    0.22892001    0.75000000    -0.13560000
opls_145-494    C    0.08450001    0.13244997    0.75000000    0.18210000
opls_145-495    C    0.06429008    0.11242008    0.75000000    -0.16990000
opls_145-496    C    0.06363000    0.15192002    0.75000000    -0.19790000
opls_145-497    C    0.39121003    0.32215999    0.75000000    0.18630000
opls_145-498    C    0.41419994    0.33264999    0.75000000    -0.17560000
opls_145-499    C    0.39384002    0.35807001    0.75000000    -0.17500000
opls_627-500    C    0.26137993    0.13844993    0.75000000    0.26280000
opls_700-501    C    0.28577000    0.15278000    0.75000000    0.00090000
opls_145-502    C    0.33154996    0.17955997    0.75000000    -0.18400000
opls_624-503    C    0.22656998    0.12729008    0.75000000    0.13950000
opls_145-504    C    0.20673001    0.12641003    0.75000000    -0.20710000
opls_700-505    C    0.18723008    0.08440005    0.75000000    0.02640000
opls_700-506    C    0.32247998    0.15646004    0.75000000    0.06080000
opls_145-507    C    0.29935006    0.14348006    0.75000000    -0.09530000
opls_145-508    C    0.16676993    0.11074995    0.75000000    0.06160000
opls_700-509    C    0.32882007    0.21472004    0.75000000    0.06280000
opls_145-510    C    0.16820003    0.13202006    0.75000000    -0.11740000
opls_145-511    C    0.14926010    0.13427009    0.75000000    -0.13220000
opls_700-512    C    0.12834995    0.11553996    0.75000000    0.06050000
opls_145-513    C    0.12697004    0.09511996    0.75000000    -0.17470000
opls_145-514    C    0.14585998    0.09368008    0.75000000    -0.20670000
opls_145-515    C    0.36025001    0.15871994    0.75000000    -0.13550000
opls_145-516    C    0.37337003    0.14893006    0.75000000    -0.12170000
opls_700-517    C    0.36387008    0.12606005    0.75000000    0.05130000
opls_145-518    C    0.34092998    0.11307004    0.75000000    -0.12310000
opls_145-519    C    0.32773007    0.12274002    0.75000000    -0.13520000
opls_145-520    C    0.04452005    0.11222996    0.75000000    -0.17470000
opls_145-521    C    0.04386001    0.13163998    0.75000000    0.18870000
opls_145-522    C    0.08388998    0.15223003    0.75000000    -0.19530000
opls_145-523    C    0.42698002    0.35558003    0.75000000    -0.17310000
opls_145-524    C    0.41684001    0.36854997    0.75000000    0.18630000
opls_145-525    C    0.38104999    0.33512007    0.75000000    -0.17420000
opls_142-526    C    0.32541992    0.77412997    0.75000000    0.06760000
opls_142-527    C    0.20586006    0.68166001    0.75000000    0.06780000
opls_142-528    C    0.45023992    0.40490997    0.75000000    0.06770000
opls_142-529    C    0.35790006    0.28565000    0.75000000    0.06820000
opls_145-530    C    0.42191003    0.54536998    0.75000000    -0.21050000
opls_624-531    C    0.44249003    0.54774007    0.75000000    0.14090000
opls_700-532    C    0.43931001    0.58615997    0.75000000    0.01300000
opls_145-533    C    0.50903002    0.54699011    0.75000000    -0.18140000
opls_700-534    C    0.52315000    0.53810002    0.75000000    0.06080000
opls_700-535    C    0.39125998    0.55450003    0.75000000    0.06400000
opls_700-536    C    0.47970000    0.47577004    0.75000000    0.06340000
opls_145-537    C    0.37909995    0.56616002    0.75000000    -0.13490000
opls_145-538    C    0.35624001    0.55630995    0.75000000    -0.13240000
opls_700-539    C    0.34262005    0.53373005    0.75000000    0.04310000
opls_145-540    C    0.35257994    0.52102999    0.75000000    -0.11460000
opls_145-541    C    0.37567999    0.53087003    0.75000000    -0.11730000
opls_145-542    C    0.55812009    0.57617011    0.75000000    -0.13540000
opls_145-543    C    0.58098000    0.58967999    0.75000000    -0.12290000
opls_700-544    C    0.59470011    0.58059008    0.75000000    0.05120000
opls_145-545    C    0.58516009    0.55768010    0.75000000    -0.12370000
opls_145-546    C    0.56237004    0.54409999    0.75000000    -0.13350000
opls_145-547    C    0.46546003    0.71436003    0.75000000    0.18210000
opls_145-548    C    0.44541000    0.71452005    0.75000000    -0.16940000
opls_145-549    C    0.48488004    0.75471008    0.75000000    -0.19790000
opls_145-550    C    0.65530994    0.59829000    0.75000000    0.18670000
opls_145-551    C    0.66575993    0.58576000    0.75000000    -0.17200000
opls_145-552    C    0.69120004    0.63153012    0.75000000    -0.17560000
opls_627-553    C    0.47177002    0.54352009    0.75000000    0.26360000
opls_700-554    C    0.48612992    0.53354997    0.75000000    -0.00230000
opls_145-555    C    0.51314000    0.51485997    0.75000000    -0.18460000
opls_624-556    C    0.46060005    0.56713003    0.75000000    0.13940000
opls_145-557    C    0.45976007    0.58610011    0.75000000    -0.21160000
opls_700-558    C    0.41774999    0.56359998    0.75000000    0.02660000
opls_700-559    C    0.49006002    0.50070999    0.75000000    0.06080000
opls_145-560    C    0.47695007    0.51070002    0.75000000    -0.09920000
opls_145-561    C    0.44412997    0.61042003    0.75000000    0.06080000
opls_700-562    C    0.54805009    0.55289009    0.75000000    0.06140000
opls_145-563    C    0.46539001    0.63029006    0.75000000    -0.11940000
opls_145-564    C    0.46757009    0.65147004    0.75000000    -0.14000000
opls_700-565    C    0.44879004    0.65360001    0.75000000    0.05640000
opls_145-566    C    0.42841001    0.63452007    0.75000000    -0.17470000
opls_145-567    C    0.42705007    0.61421010    0.75000000    -0.20740000
opls_145-568    C    0.49263012    0.46540010    0.75000000    -0.13440000
opls_145-569    C    0.48296001    0.44249999    0.75000000    -0.12280000
opls_700-570    C    0.46010995    0.42904997    0.75000000    0.05120000
opls_145-571    C    0.44700004    0.43886007    0.75000000    -0.12540000
opls_145-572    C    0.45653993    0.46169999    0.75000000    -0.13450000
opls_145-573    C    0.44519002    0.73411000    0.75000000    -0.17750000
opls_145-574    C    0.46462003    0.75421998    0.75000000    0.18890000
opls_145-575    C    0.48520995    0.73476999    0.75000000    -0.19340000
opls_145-576    C    0.68869004    0.59588998    0.75000000    -0.17260000
opls_145-577    C    0.70168009    0.61900011    0.75000000    0.18650000
opls_145-578    C    0.66826999    0.62139997    0.75000000    -0.17300000
opls_142-579    C    0.10736996    0.11556002    0.75000000    0.06780000
opls_142-580    C    0.01502006    0.14265001    0.75000000    0.06800000
opls_142-581    C    0.73801996    0.62192000    0.75000000    0.06830000
opls_142-582    C    0.61881000    0.59511010    0.75000000    0.06920000
opls_145-583    C    0.91139991    0.12103996    0.75000000    -0.21100000
opls_624-584    C    0.89082996    0.11867003    0.75000000    0.14070000
opls_700-585    C    0.89405995    0.08027003    0.75000000    0.01300000
opls_145-586    C    0.82425997    0.11965994    0.75000000    -0.16790000
opls_700-587    C    0.81025009    0.12872009    0.75000000    0.06130000
opls_700-588    C    0.94210004    0.11201007    0.75000000    0.06400000
opls_700-589    C    0.85407996    0.19100995    0.75000000    0.06290000
opls_145-590    C    0.95431994    0.10041997    0.75000000    -0.13450000
opls_145-591    C    0.97718997    0.11036000    0.75000000    -0.13690000
opls_700-592    C    0.99073995    0.13297000    0.75000000    0.05010000
opls_145-593    C    0.98072003    0.14557994    0.75000000    -0.13250000
opls_145-594    C    0.95762001    0.13564994    0.75000000    -0.11730000
opls_145-595    C    0.77501005    0.09081002    0.75000000    -0.13550000
opls_145-596    C    0.75210997    0.07744997    0.75000000    -0.12170000
opls_700-597    C    0.73852007    0.08669004    0.75000000    0.05120000
opls_145-598    C    0.74822007    0.10961005    0.75000000    -0.12330000
opls_145-599    C    0.77108007    0.12305003    0.75000000    -0.13560000
opls_145-600    C    0.86755003    0.95205007    0.75000000    0.18210000
opls_145-601    C    0.88758006    0.95186999    0.75000000    -0.16990000
opls_145-602    C    0.84808007    0.91171006    0.75000000    -0.19790000
opls_145-603    C    0.67784004    0.06904998    0.75000000    0.18630000
opls_145-604    C    0.66735002    0.08155005    0.75000000    -0.17560000
opls_145-605    C    0.64193004    0.03577006    0.75000000    -0.17500000
opls_627-606    C    0.86155002    0.12292998    0.75000000    0.26280000
opls_700-607    C    0.84722000    0.13299006    0.75000000    0.00090000
opls_145-608    C    0.82043999    0.15199008    0.75000000    -0.18400000
opls_624-609    C    0.87270997    0.09928008    0.75000000    0.13940000
opls_145-610    C    0.87359001    0.08032003    0.75000000    -0.20710000
opls_700-611    C    0.91560003    0.10283003    0.75000000    0.02640000
opls_700-612    C    0.84353998    0.16601999    0.75000000    0.06080000
opls_145-613    C    0.85651993    0.15586994    0.75000000    -0.09530000
opls_145-614    C    0.88925000    0.05602000    0.75000000    0.06160000
opls_700-615    C    0.78528006    0.11410008    0.75000000    0.06280000
opls_145-616    C    0.86798008    0.03618007    0.75000000    -0.11740000
opls_145-617    C    0.86573004    0.01499006    0.75000000    -0.13220000
opls_700-618    C    0.88445994    0.01280992    0.75000000    0.06050000
opls_145-619    C    0.90488003    0.03185007    0.75000000    -0.17470000
opls_145-620    C    0.90631999    0.05217994    0.75000000    -0.20670000
opls_145-621    C    0.84128005    0.20153004    0.75000000    -0.13550000
opls_145-622    C    0.85107003    0.22444002    0.75000000    -0.12170000
opls_700-623    C    0.87394001    0.23780994    0.75000000    0.05130000
opls_145-624    C    0.88693002    0.22786004    0.75000000    -0.12310000
opls_145-625    C    0.87726001    0.20499003    0.75000000    -0.13520000
opls_145-626    C    0.88777002    0.93229007    0.75000000    -0.17470000
opls_145-627    C    0.86835999    0.91222006    0.75000000    0.18870000
opls_145-628    C    0.84777004    0.93166001    0.75000000    -0.19530000
opls_145-629    C    0.64441998    0.07140000    0.75000000    -0.17310000
opls_145-630    C    0.63144996    0.04829004    0.75000000    0.18630000
opls_145-631    C    0.66487996    0.04592998    0.75000000    -0.17440000
opls_142-632    C    0.22587005    0.55129002    0.75000000    0.06760000
opls_142-633    C    0.31834001    0.52420003    0.75000000    0.06780000
opls_142-634    C    0.59509002    0.04533002    0.75000000    0.06770000
opls_142-635    C    0.71435001    0.07224995    0.75000000    0.06820000
opls_559-636    N    0.56471002    0.08515000    0.25000000    -0.42220000
opls_557-637    N    0.53105004    0.08289997    0.25000000    -0.41230000
opls_750-638    N    0.13312010    0.02762006    0.25000000    -0.34110000
opls_750-639    N    0.12899002    0.10665003    0.25000000    -0.30840000
opls_750-640    N    0.63048004    0.90515009    0.25000000    -0.35010000
opls_750-641    N    0.58673997    0.95507999    0.25000000    -0.35010000
opls_559-642    N    0.10171998    0.24798006    0.25000000    -0.41800000
opls_557-643    N    0.13536004    0.25018996    0.25000000    -0.41240000
opls_750-644    N    0.53379997    0.30594007    0.25000000    -0.34000000
opls_750-645    N    0.53795997    0.22684004    0.25000000    -0.30830000
opls_750-646    N    0.03679003    0.42899011    0.25000000    -0.35000000
opls_750-647    N    0.08063000    0.37913010    0.25000000    -0.35010000
opls_559-648    N    0.91484999    0.47956011    0.25000000    -0.42220000
opls_557-649    N    0.91710006    0.44814998    0.25000000    -0.41230000
opls_750-650    N    0.97237993    0.10549993    0.25000000    -0.34110000
opls_750-651    N    0.89335000    0.02233995    0.25000000    -0.30840000
opls_750-652    N    0.09485006    0.72533010    0.25000000    -0.35010000
opls_750-653    N    0.04492004    0.63166005    0.25000000    -0.35010000
opls_559-654    N    0.75201998    0.85374001    0.25000000    -0.41800000
opls_557-655    N    0.74981006    0.88517003    0.25000000    -0.41230000
opls_750-656    N    0.69406006    0.22786004    0.25000000    -0.34000000
opls_750-657    N    0.77316007    0.31112003    0.25000000    -0.30830000
opls_750-658    N    0.57100994    0.60779996    0.25000000    -0.35010000
opls_750-659    N    0.62087012    0.70150011    0.25000000    -0.35010000
opls_559-660    N    0.52044007    0.43529006    0.25000000    -0.42230000
opls_557-661    N    0.55185004    0.46895005    0.25000000    -0.41230000
opls_750-662    N    0.89449997    0.86688001    0.25000000    -0.34110000
opls_750-663    N    0.97765998    0.87101003    0.25000000    -0.30840000
opls_750-664    N    0.27466998    0.36951998    0.25000000    -0.35010000
opls_750-665    N    0.36833999    0.41325996    0.25000000    -0.35000000
opls_559-666    N    0.14626012    0.89828010    0.25000000    -0.41770000
opls_557-667    N    0.11483005    0.86464001    0.25000000    -0.41230000
opls_750-668    N    0.77214005    0.46620005    0.25000000    -0.34000000
opls_750-669    N    0.68888004    0.46204010    0.25000000    -0.30820000
opls_750-670    N    0.39219998    0.96321010    0.25000000    -0.35010000
opls_750-671    N    0.29850005    0.91937012    0.25000000    -0.35000000
opls_559-672    N    0.43528998    0.91485000    0.75000000    -0.42230000
opls_557-673    N    0.46894996    0.91710003    0.75000000    -0.41220000
opls_750-674    N    0.86687998    0.97238011    0.75000000    -0.34110000
opls_750-675    N    0.87101006    0.89335013    0.75000000    -0.30840000
opls_750-676    N    0.36952004    0.09485008    0.75000000    -0.35000000
opls_750-677    N    0.41326003    0.04492001    0.75000000    -0.35010000
opls_559-678    N    0.89828010    0.75202011    0.75000000    -0.41800000
opls_557-679    N    0.86463996    0.74981004    0.75000000    -0.41240000
opls_750-680    N    0.46620011    0.69406009    0.75000000    -0.34000000
opls_750-681    N    0.46204011    0.77316013    0.75000000    -0.30830000
opls_750-682    N    0.96321006    0.57101006    0.75000000    -0.34990000
opls_750-683    N    0.91937009    0.62087007    0.75000000    -0.35010000
opls_559-684    N    0.08515010    0.52044006    0.75000000    -0.42230000
opls_557-685    N    0.08289994    0.55185002    0.75000000    -0.41220000
opls_750-686    N    0.02762007    0.89450007    0.75000000    -0.34110000
opls_750-687    N    0.10665000    0.97766005    0.75000000    -0.30820000
opls_750-688    N    0.90515002    0.27467007    0.75000000    -0.35010000
opls_750-689    N    0.95507996    0.36833995    0.75000000    -0.35010000
opls_559-690    N    0.24798002    0.14625999    0.75000000    -0.41800000
opls_557-691    N    0.25018994    0.11482997    0.75000000    -0.41240000
opls_750-692    N    0.30594002    0.77214012    0.75000000    -0.34000000
opls_750-693    N    0.22683993    0.68887997    0.75000000    -0.30840000
opls_750-694    N    0.42899006    0.39220004    0.75000000    -0.35010000
opls_750-695    N    0.37912996    0.29850006    0.75000000    -0.35010000
opls_559-696    N    0.47956001    0.56471011    0.75000000    -0.42230000
opls_557-697    N    0.44814996    0.53104995    0.75000000    -0.41220000
opls_750-698    N    0.10550003    0.13311999    0.75000000    -0.34110000
opls_750-699    N    0.02234002    0.12898997    0.75000000    -0.30830000
opls_750-700    N    0.72533002    0.63048002    0.75000000    -0.35000000
opls_750-701    N    0.63166001    0.58674004    0.75000000    -0.35010000
opls_559-702    N    0.85373996    0.10172006    0.75000000    -0.41800000
opls_557-703    N    0.88516995    0.13535999    0.75000000    -0.41230000
opls_750-704    N    0.22785995    0.53379995    0.75000000    -0.33990000
opls_750-705    N    0.31112004    0.53796006    0.75000000    -0.30840000
opls_750-706    N    0.60780010    0.03679007    0.75000000    -0.35010000
opls_750-707    N    0.70150004    0.08063004    0.75000000    -0.35010000
opls_146-708    H    0.52837997    0.11806004    0.25000000    0.23770000
opls_146-709    H    0.56443998    0.04905002    0.25000000    0.09370000
opls_146-710    H    0.58271000    0.19940007    0.25000000    0.23790000
opls_146-711    H    0.56687006    0.21787002    0.25000000    0.10510000
opls_146-712    H    0.50325006    0.16080008    0.25000000    0.10870000
opls_146-713    H    0.51798995    0.13852000    0.25000000    0.23140000
opls_146-714    H    0.58463998    0.03572007    0.25000000    0.09260000
opls_146-715    H    0.60737999    0.01941002    0.25000000    0.11300000
opls_146-716    H    0.55010996    0.95476998    0.25000000    0.11180000
opls_146-717    H    0.52677002    0.97009011    0.25000000    0.09370000
opls_146-718    H    0.69990999    0.27045009    0.25000000    0.08900000
opls_146-719    H    0.77020000    0.26999009    0.25000000    0.11650000
opls_146-720    H    0.56797999    0.91195001    0.25000000    0.11210000
opls_146-721    H    0.64932004    0.94837003    0.25000000    0.11040000
opls_146-722    H    0.50770003    0.98437001    0.25000000    0.23890000
opls_146-723    H    0.60029003    0.12450998    0.25000000    0.10600000
opls_562-724    H    0.51410010    0.07672008    0.25000000    0.25900000
opls_146-725    H    0.50097000    0.04153008    0.25000000    0.10600000
opls_146-726    H    0.63074994    0.14985994    0.25000000    0.10370000
opls_146-727    H    0.66596996    0.18218005    0.25000000    0.11120000
opls_146-728    H    0.63511998    0.22184001    0.25000000    0.11190000
opls_146-729    H    0.60083994    0.18794993    0.25000000    0.23840000
opls_146-730    H    0.47434006    0.96405001    0.25000000    0.09370000
opls_146-731    H    0.43528011    0.94183013    0.25000000    0.11250000
opls_146-732    H    0.42888996    0.99965002    0.25000000    0.11420000
opls_146-733    H    0.46759003    0.02252003    0.25000000    0.09370000
opls_146-734    H    0.73362998    0.30411995    0.25000000    0.11140000
opls_146-735    H    0.73521007    0.23437001    0.25000000    0.11340000
opls_146-736    H    0.58543005    0.88955003    0.25000000    0.11930000
opls_146-737    H    0.63180011    0.97079007    0.25000000    0.11050000
opls_144-738    H    0.09942997    0.00634008    0.25000000    0.10170000
opls_144-739    H    0.16026006    0.13416006    0.25000000    0.11140000
opls_144-740    H    0.60432003    0.87304000    0.25000000    0.11080000
opls_144-741    H    0.61270004    0.98730010    0.25000000    0.11700000
opls_146-742    H    0.13802998    0.21508005    0.25000000    0.23800000
opls_146-743    H    0.10219007    0.28440008    0.25000000    0.09370000
opls_146-744    H    0.08387999    0.13376995    0.25000000    0.23790000
opls_146-745    H    0.09987005    0.11537007    0.25000000    0.10600000
opls_146-746    H    0.16336003    0.17256993    0.25000000    0.11220000
opls_146-747    H    0.14850002    0.19471005    0.25000000    0.23140000
opls_146-748    H    0.08224999    0.29811998    0.25000000    0.22120000
opls_146-749    H    0.05975002    0.31474004    0.25000000    0.11190000
opls_146-750    H    0.11729997    0.37915000    0.25000000    0.10940000
opls_146-751    H    0.14042000    0.36350998    0.25000000    0.09140000
opls_146-752    H    0.96643007    0.06290002    0.25000000    0.09370000
opls_146-753    H    0.89622997    0.06347005    0.25000000    0.11620000
opls_146-754    H    0.09933993    0.42226995    0.25000000    0.11180000
opls_146-755    H    0.01798006    0.38579006    0.25000000    0.10920000
opls_146-756    H    0.15925009    0.34892006    0.25000000    0.23890000
opls_146-757    H    0.06613004    0.20856005    0.25000000    0.10600000
opls_562-758    H    0.15230008    0.25634008    0.25000000    0.25870000
opls_146-759    H    0.16553010    0.29148008    0.25000000    0.10640000
opls_146-760    H    0.03572996    0.18324002    0.25000000    0.10370000
opls_146-761    H    0.00051000    0.15101004    0.25000000    0.10920000
opls_146-762    H    0.03118994    0.11120995    0.25000000    0.11290000
opls_146-763    H    0.06549998    0.14496007    0.25000000    0.23830000
opls_146-764    H    0.19266003    0.36905998    0.25000000    0.09140000
opls_146-765    H    0.23175999    0.39110011    0.25000000    0.11120000
opls_146-766    H    0.23776999    0.33305999    0.25000000    0.11120000
opls_146-767    H    0.19897002    0.31033997    0.25000000    0.09370000
opls_146-768    H    0.93273999    0.02930992    0.25000000    0.11190000
opls_146-769    H    0.93123992    0.09909999    0.25000000    0.11260000
opls_146-770    H    0.08183001    0.44462996    0.25000000    0.11630000
opls_146-771    H    0.03553011    0.36339009    0.25000000    0.11060000
opls_144-772    H    0.56745008    0.32732004    0.25000000    0.10170000
opls_144-773    H    0.50660997    0.19940994    0.25000000    0.09740000
opls_144-774    H    0.06291991    0.46112996    0.25000000    0.11240000
opls_144-775    H    0.05466001    0.34693005    0.25000000    0.11730000
opls_146-776    H    0.88193995    0.41032001    0.25000000    0.23770000
opls_146-777    H    0.95094997    0.51539003    0.25000000    0.09370000
opls_146-778    H    0.80060000    0.38330995    0.25000000    0.23780000
opls_146-779    H    0.78212996    0.34899999    0.25000000    0.10500000
opls_146-780    H    0.83919996    0.34245006    0.25000000    0.10870000
opls_146-781    H    0.86148007    0.37947004    0.25000000    0.23150000
opls_146-782    H    0.96428002    0.54892010    0.25000000    0.09260000
opls_146-783    H    0.98059007    0.58797006    0.25000000    0.11290000
opls_146-784    H    0.04523004    0.59534002    0.25000000    0.10940000
opls_146-785    H    0.02991000    0.55667999    0.25000000    0.09370000
opls_146-786    H    0.72954996    0.42945998    0.25000000    0.08900000
opls_146-787    H    0.73001001    0.50021002    0.25000000    0.11650000
opls_146-788    H    0.08805002    0.65602997    0.25000000    0.11210000
opls_146-789    H    0.05162995    0.70094998    0.25000000    0.11040000
opls_146-790    H    0.01562997    0.52333002    0.25000000    0.23890000
opls_146-791    H    0.87549009    0.47578007    0.25000000    0.10600000
opls_562-792    H    0.92327998    0.43738006    0.25000000    0.25890000
opls_146-793    H    0.95847008    0.45944009    0.25000000    0.10610000
opls_146-794    H    0.85014004    0.48088996    0.25000000    0.10370000
opls_146-795    H    0.81781991    0.48378995    0.25000000    0.11120000
opls_146-796    H    0.77816003    0.41328003    0.25000000    0.11190000
opls_146-797    H    0.81205008    0.41289008    0.25000000    0.23830000
opls_146-798    H    0.03595002    0.51029001    0.25000000    0.09380000
opls_146-799    H    0.05816998    0.49345006    0.25000000    0.11250000
opls_146-800    H    0.00035000    0.42924009    0.25000000    0.11420000
opls_146-801    H    0.97748005    0.44507006    0.25000000    0.09370000
opls_146-802    H    0.69588004    0.42950998    0.25000000    0.11140000
opls_146-803    H    0.76562998    0.50084008    0.25000000    0.11340000
opls_146-804    H    0.11045007    0.69588005    0.25000000    0.11930000
opls_146-805    H    0.02921008    0.66101010    0.25000000    0.11050000
opls_144-806    H    0.99365993    0.09308999    0.25000000    0.10170000
opls_144-807    H    0.86584010    0.02610008    0.25000000    0.11140000
opls_144-808    H    0.12696007    0.73128007    0.25000000    0.11080000
opls_144-809    H    0.01270003    0.62540006    0.25000000    0.11700000
opls_146-810    H    0.78491995    0.92295001    0.25000000    0.23780000
opls_146-811    H    0.71560004    0.81779002    0.25000000    0.09370000
opls_146-812    H    0.86623008    0.95011006    0.25000000    0.23790000
opls_146-813    H    0.88463006    0.98450011    0.25000000    0.10600000
opls_146-814    H    0.82743005    0.99079003    0.25000000    0.11220000
opls_146-815    H    0.80529001    0.95379010    0.25000000    0.23140000
opls_146-816    H    0.70188000    0.78413003    0.25000000    0.22110000
opls_146-817    H    0.68526002    0.74501000    0.25000000    0.11180000
opls_146-818    H    0.62084999    0.73815005    0.25000000    0.10940000
opls_146-819    H    0.63649007    0.77691007    0.25000000    0.09140000
opls_146-820    H    0.93710005    0.90353012    0.25000000    0.09370000
opls_146-821    H    0.93652998    0.83276001    0.25000000    0.11620000
opls_146-822    H    0.57772998    0.67706999    0.25000000    0.10920000
opls_146-823    H    0.61421000    0.63219011    0.25000000    0.10920000
opls_146-824    H    0.65108002    0.81033011    0.25000000    0.23890000
opls_146-825    H    0.79144006    0.85757004    0.25000000    0.10600000
opls_562-826    H    0.74365997    0.89596001    0.25000000    0.25870000
opls_146-827    H    0.70851993    0.87404997    0.25000000    0.10640000
opls_146-828    H    0.81676007    0.85249008    0.25000000    0.10370000
opls_146-829    H    0.84899006    0.84950013    0.25000000    0.10920000
opls_146-830    H    0.88879009    0.91998012    0.25000000    0.11290000
opls_146-831    H    0.85504004    0.92054012    0.25000000    0.23830000
opls_146-832    H    0.63094003    0.82360003    0.25000000    0.09140000
opls_146-833    H    0.60890002    0.84066003    0.25000000    0.11120000
opls_146-834    H    0.66693995    0.90470998    0.25000000    0.11120000
opls_146-835    H    0.68965998    0.88863002    0.25000000    0.09370000
opls_146-836    H    0.97068999    0.90343012    0.25000000    0.11190000
opls_146-837    H    0.90089993    0.83213998    0.25000000    0.11250000
opls_146-838    H    0.55536998    0.63720001    0.25000000    0.11630000
opls_146-839    H    0.63660996    0.67214002    0.25000000    0.11050000
opls_144-840    H    0.67268003    0.24013003    0.25000000    0.10170000
opls_144-841    H    0.80059004    0.30720003    0.25000000    0.09740000
opls_144-842    H    0.53886991    0.60178996    0.25000000    0.11250000
opls_144-843    H    0.65306996    0.70773000    0.25000000    0.11730000
opls_146-844    H    0.58967994    0.47161996    0.25000000    0.23770000
opls_146-845    H    0.48460999    0.43556011    0.25000000    0.09370000
opls_146-846    H    0.61669000    0.41728998    0.25000000    0.23790000
opls_146-847    H    0.65099998    0.43312999    0.25000000    0.10500000
opls_146-848    H    0.65755006    0.49675003    0.25000000    0.10870000
opls_146-849    H    0.62052998    0.48200996    0.25000000    0.23150000
opls_146-850    H    0.45107994    0.41536000    0.25000000    0.09260000
opls_146-851    H    0.41203002    0.39262008    0.25000000    0.11290000
opls_146-852    H    0.40466000    0.44989001    0.25000000    0.10940000
opls_146-853    H    0.44332006    0.47323006    0.25000000    0.09370000
opls_146-854    H    0.57053999    0.30009009    0.25000000    0.10470000
opls_146-855    H    0.49979007    0.22980006    0.25000000    0.11650000
opls_146-856    H    0.34396999    0.43202002    0.25000000    0.11210000
opls_146-857    H    0.29905001    0.35067999    0.25000000    0.11040000
opls_146-858    H    0.47667000    0.49229997    0.25000000    0.23890000
opls_146-859    H    0.52422002    0.39970995    0.25000000    0.10600000
opls_562-860    H    0.56262000    0.48590002    0.25000000    0.25890000
opls_146-861    H    0.54056000    0.49902999    0.25000000    0.10600000
opls_146-862    H    0.51911002    0.36925010    0.25000000    0.10380000
opls_146-863    H    0.51620999    0.33403000    0.25000000    0.11120000
opls_146-864    H    0.58672000    0.36487996    0.25000000    0.11190000
opls_146-865    H    0.58710997    0.39915998    0.25000000    0.23830000
opls_146-866    H    0.48970992    0.52565998    0.25000000    0.09370000
opls_146-867    H    0.50654999    0.56471997    0.25000000    0.11250000
opls_146-868    H    0.57075998    0.57111005    0.25000000    0.11420000
opls_146-869    H    0.55493000    0.53241007    0.25000000    0.09370000
opls_146-870    H    0.57048998    0.26637007    0.25000000    0.11140000
opls_146-871    H    0.49916002    0.26479007    0.25000000    0.11340000
opls_146-872    H    0.30412011    0.41457008    0.25000000    0.11940000
opls_146-873    H    0.33899004    0.36820000    0.25000000    0.11050000
opls_144-874    H    0.90691003    0.90057010    0.25000000    0.10170000
opls_144-875    H    0.97390006    0.83974002    0.25000000    0.11140000
opls_144-876    H    0.26871998    0.39568009    0.25000000    0.11080000
opls_144-877    H    0.37460001    0.38730000    0.25000000    0.11700000
opls_146-878    H    0.07705000    0.86197011    0.25000000    0.23780000
opls_146-879    H    0.18220997    0.89781007    0.25000000    0.09370000
opls_146-880    H    0.04988993    0.91611999    0.25000000    0.23790000
opls_146-881    H    0.01549998    0.90012999    0.25000000    0.10600000
opls_146-882    H    0.00921007    0.83664004    0.25000000    0.11220000
opls_146-883    H    0.04621005    0.85150001    0.25000000    0.23140000
opls_146-884    H    0.21587001    0.91774999    0.25000000    0.22110000
opls_146-885    H    0.25499004    0.94025012    0.25000000    0.11180000
opls_146-886    H    0.26184999    0.88270011    0.25000000    0.10940000
opls_146-887    H    0.22309002    0.85958012    0.25000000    0.09140000
opls_146-888    H    0.09646996    0.03357003    0.25000000    0.09370000
opls_146-889    H    0.16723990    0.10376994    0.25000000    0.11630000
opls_146-890    H    0.32293009    0.90066006    0.25000000    0.11180000
opls_146-891    H    0.36781002    0.98201999    0.25000000    0.10920000
opls_146-892    H    0.18966997    0.84074999    0.25000000    0.23890000
opls_146-893    H    0.14242998    0.93387008    0.25000000    0.10600000
opls_562-894    H    0.10404004    0.84770007    0.25000000    0.25870000
opls_146-895    H    0.12595005    0.83447011    0.25000000    0.10640000
opls_146-896    H    0.14751005    0.96427007    0.25000000    0.10370000
opls_146-897    H    0.15050002    0.99949000    0.25000000    0.10930000
opls_146-898    H    0.08002006    0.96881009    0.25000000    0.11290000
opls_146-899    H    0.07945993    0.93449997    0.25000000    0.23830000
opls_146-900    H    0.17639995    0.80733999    0.25000000    0.09140000
opls_146-901    H    0.15934007    0.76824003    0.25000000    0.11120000
opls_146-902    H    0.09529006    0.76223002    0.25000000    0.11120000
opls_146-903    H    0.11137001    0.80103000    0.25000000    0.09370000
opls_146-904    H    0.09657001    0.06725995    0.25000000    0.11190000
opls_146-905    H    0.16786000    0.06876003    0.25000000    0.11250000
opls_146-906    H    0.36280001    0.91817003    0.25000000    0.11630000
opls_146-907    H    0.32786001    0.96447005    0.25000000    0.11060000
opls_144-908    H    0.75986997    0.43255009    0.25000000    0.10170000
opls_144-909    H    0.69279999    0.49339003    0.25000000    0.09740000
opls_144-910    H    0.39821003    0.93708008    0.25000000    0.11240000
opls_144-911    H    0.29227011    0.94534011    0.25000000    0.11730000
opls_146-912    H    0.47162011    0.88194013    0.75000000    0.23780000
opls_146-913    H    0.43556002    0.95094998    0.75000000    0.09370000
opls_146-914    H    0.41729008    0.80060010    0.75000000    0.23780000
opls_146-915    H    0.43312994    0.78212998    0.75000000    0.10500000
opls_146-916    H    0.49675002    0.83920009    0.75000000    0.10870000
opls_146-917    H    0.48201005    0.86148000    0.75000000    0.23150000
opls_146-918    H    0.41536010    0.96428010    0.75000000    0.09260000
opls_146-919    H    0.39262001    0.98058998    0.75000000    0.11290000
opls_146-920    H    0.44989004    0.04523002    0.75000000    0.11180000
opls_146-921    H    0.47323006    0.02991005    0.75000000    0.09370000
opls_146-922    H    0.30009009    0.72955007    0.75000000    0.08900000
opls_146-923    H    0.22980008    0.73001008    0.75000000    0.11650000
opls_146-924    H    0.43202001    0.08804999    0.75000000    0.11210000
opls_146-925    H    0.35067996    0.05162997    0.75000000    0.11040000
opls_146-926    H    0.49229997    0.01562999    0.75000000    0.23890000
opls_146-927    H    0.39970997    0.87549002    0.75000000    0.10600000
opls_562-928    H    0.48589998    0.92328009    0.75000000    0.25900000
opls_146-929    H    0.49903009    0.95847009    0.75000000    0.10600000
opls_146-930    H    0.36925006    0.85014006    0.75000000    0.10370000
opls_146-931    H    0.33403013    0.81782012    0.75000000    0.11120000
opls_146-932    H    0.36488002    0.77815999    0.75000000    0.11190000
opls_146-933    H    0.39916006    0.81205007    0.75000000    0.23830000
opls_146-934    H    0.52565994    0.03594999    0.75000000    0.09370000
opls_146-935    H    0.56471997    0.05817004    0.75000000    0.11250000
opls_146-936    H    0.57111004    0.00034998    0.75000000    0.11420000
opls_146-937    H    0.53241006    0.97748013    0.75000000    0.09370000
opls_146-938    H    0.26637002    0.69588005    0.75000000    0.11140000
opls_146-939    H    0.26478993    0.76562999    0.75000000    0.11340000
opls_146-940    H    0.41456995    0.11044997    0.75000000    0.11930000
opls_146-941    H    0.36819989    0.02920993    0.75000000    0.11050000
opls_144-942    H    0.90057011    0.99366008    0.75000000    0.10170000
opls_144-943    H    0.83974002    0.86584010    0.75000000    0.11140000
opls_144-944    H    0.39567997    0.12696000    0.75000000    0.11080000
opls_144-945    H    0.38730004    0.01270006    0.75000000    0.11700000
opls_146-946    H    0.86197010    0.78492011    0.75000000    0.23780000
opls_146-947    H    0.89781001    0.71560009    0.75000000    0.09370000
opls_146-948    H    0.91612001    0.86623005    0.75000000    0.23790000
opls_146-949    H    0.90013003    0.88463010    0.75000000    0.10590000
opls_146-950    H    0.83663997    0.82743007    0.75000000    0.11220000
opls_146-951    H    0.85150006    0.80529011    0.75000000    0.23140000
opls_146-952    H    0.91775001    0.70188002    0.75000000    0.22110000
opls_146-953    H    0.94024998    0.68525996    0.75000000    0.11180000
opls_146-954    H    0.88270003    0.62085000    0.75000000    0.10940000
opls_146-955    H    0.85958000    0.63649002    0.75000000    0.09140000
opls_146-956    H    0.03356993    0.93709998    0.75000000    0.09370000
opls_146-957    H    0.10377011    0.93653012    0.75000000    0.11630000
opls_146-958    H    0.90066007    0.57773005    0.75000000    0.11180000
opls_146-959    H    0.98202002    0.61421010    0.75000000    0.10920000
opls_146-960    H    0.84074999    0.65108010    0.75000000    0.23890000
opls_146-961    H    0.93387004    0.79144012    0.75000000    0.10600000
opls_562-962    H    0.84770000    0.74366008    0.75000000    0.25870000
opls_146-963    H    0.83446998    0.70852008    0.75000000    0.10640000
opls_146-964    H    0.96427004    0.81675998    0.75000000    0.10370000
opls_146-965    H    0.99949008    0.84899013    0.75000000    0.10920000
opls_146-966    H    0.96881006    0.88879005    0.75000000    0.11290000
opls_146-967    H    0.93450011    0.85504009    0.75000000    0.23830000
opls_146-968    H    0.80733997    0.63094002    0.75000000    0.09140000
opls_146-969    H    0.76824009    0.60890006    0.75000000    0.11120000
opls_146-970    H    0.76223001    0.66694001    0.75000000    0.11140000
opls_146-971    H    0.80102998    0.68966003    0.75000000    0.09370000
opls_146-972    H    0.06726001    0.97069008    0.75000000    0.11190000
opls_146-973    H    0.06876008    0.90090001    0.75000000    0.11250000
opls_146-974    H    0.91816999    0.55537004    0.75000000    0.11630000
opls_146-975    H    0.96446997    0.63661008    0.75000000    0.11050000
opls_144-976    H    0.43254992    0.67267996    0.75000000    0.10170000
opls_144-977    H    0.49339003    0.80059006    0.75000000    0.09740000
opls_144-978    H    0.93708009    0.53887004    0.75000000    0.11240000
opls_144-979    H    0.94534007    0.65307011    0.75000000    0.11730000
opls_146-980    H    0.11806005    0.58967999    0.75000000    0.23770000
opls_146-981    H    0.04905003    0.48460997    0.75000000    0.09370000
opls_146-982    H    0.19940000    0.61669005    0.75000000    0.23780000
opls_146-983    H    0.21787004    0.65100001    0.75000000    0.10510000
opls_146-984    H    0.16080012    0.65755011    0.75000000    0.10870000
opls_146-985    H    0.13851993    0.62052996    0.75000000    0.23140000
opls_146-986    H    0.03572006    0.45108007    0.75000000    0.09260000
opls_146-987    H    0.01941001    0.41203010    0.75000000    0.11290000
opls_146-988    H    0.95476996    0.40465998    0.75000000    0.10940000
opls_146-989    H    0.97009000    0.44332001    0.75000000    0.09370000
opls_146-990    H    0.27045004    0.57054002    0.75000000    0.08900000
opls_146-991    H    0.26998999    0.49978998    0.75000000    0.11650000
opls_146-992    H    0.91194998    0.34397003    0.75000000    0.11210000
opls_146-993    H    0.94837005    0.29905002    0.75000000    0.11040000
opls_146-994    H    0.98437003    0.47666998    0.75000000    0.23890000
opls_146-995    H    0.12450999    0.52422010    0.75000000    0.10600000
opls_562-996    H    0.07672011    0.56262010    0.75000000    0.25890000
opls_146-997    H    0.04153000    0.54056007    0.75000000    0.10600000
opls_146-998    H    0.14985996    0.51911004    0.75000000    0.10370000
opls_146-999    H    0.18218009    0.51621005    0.75000000    0.11120000
opls_146-1000    H    0.22183997    0.58671997    0.75000000    0.11190000
opls_146-1001    H    0.18795000    0.58711008    0.75000000    0.23830000
opls_146-1002    H    0.96404998    0.48970999    0.75000000    0.09370000
opls_146-1003    H    0.94183010    0.50655010    0.75000000    0.11250000
opls_146-1004    H    0.99965008    0.57076007    0.75000000    0.11420000
opls_146-1005    H    0.02252003    0.55493010    0.75000000    0.09370000
opls_146-1006    H    0.30411996    0.57049002    0.75000000    0.11140000
opls_146-1007    H    0.23437010    0.49916008    0.75000000    0.11340000
opls_146-1008    H    0.88954993    0.30411995    0.75000000    0.11930000
opls_146-1009    H    0.97079001    0.33899007    0.75000000    0.11050000
opls_144-1010    H    0.00634007    0.90691001    0.75000000    0.10170000
opls_144-1011    H    0.13415998    0.97390008    0.75000000    0.11140000
opls_144-1012    H    0.87304001    0.26872010    0.75000000    0.11080000
opls_144-1013    H    0.98729997    0.37459994    0.75000000    0.11700000
opls_146-1014    H    0.21508005    0.07704999    0.75000000    0.23780000
opls_146-1015    H    0.28439996    0.18220998    0.75000000    0.09370000
opls_146-1016    H    0.13376992    0.04988994    0.75000000    0.23790000
opls_146-1017    H    0.11537003    0.01550006    0.75000000    0.10600000
opls_146-1018    H    0.17256995    0.00920997    0.75000000    0.11220000
opls_146-1019    H    0.19471007    0.04621006    0.75000000    0.23140000
opls_146-1020    H    0.29812000    0.21586997    0.75000000    0.22110000
opls_146-1021    H    0.31473998    0.25499000    0.75000000    0.11180000
opls_146-1022    H    0.37915001    0.26184995    0.75000000    0.10940000
opls_146-1023    H    0.36350993    0.22308993    0.75000000    0.09140000
opls_146-1024    H    0.06290003    0.09647005    0.75000000    0.09380000
opls_146-1025    H    0.06347002    0.16723999    0.75000000    0.11620000
opls_146-1026    H    0.42227002    0.32293001    0.75000000    0.10920000
opls_146-1027    H    0.38579009    0.36781005    0.75000000    0.10920000
opls_146-1028    H    0.34892006    0.18967006    0.75000000    0.23900000
opls_146-1029    H    0.20855994    0.14242996    0.75000000    0.10600000
opls_562-1030    H    0.25634003    0.10403999    0.75000000    0.25870000
opls_146-1031    H    0.29148007    0.12595003    0.75000000    0.10640000
opls_146-1032    H    0.18324002    0.14751008    0.75000000    0.10370000
opls_146-1033    H    0.15101002    0.15050004    0.75000000    0.10920000
opls_146-1034    H    0.11120999    0.08002004    0.75000000    0.11290000
opls_146-1035    H    0.14496005    0.07946005    0.75000000    0.23830000
opls_146-1036    H    0.36905997    0.17639997    0.75000000    0.09140000
opls_146-1037    H    0.39109998    0.15933997    0.75000000    0.11120000
opls_146-1038    H    0.33306005    0.09529002    0.75000000    0.11120000
opls_146-1039    H    0.31034002    0.11136998    0.75000000    0.09370000
opls_146-1040    H    0.02931009    0.09657004    0.75000000    0.11190000
opls_146-1041    H    0.09910007    0.16786002    0.75000000    0.11250000
opls_146-1042    H    0.44463002    0.36279999    0.75000000    0.11630000
opls_146-1043    H    0.36339004    0.32785998    0.75000000    0.11050000
opls_144-1044    H    0.32731997    0.75986997    0.75000000    0.10170000
opls_144-1045    H    0.19940996    0.69279997    0.75000000    0.09740000
opls_144-1046    H    0.46113009    0.39821004    0.75000000    0.11240000
opls_144-1047    H    0.34693004    0.29227000    0.75000000    0.11740000
opls_146-1048    H    0.41032006    0.52838004    0.75000000    0.23780000
opls_146-1049    H    0.51539009    0.56444006    0.75000000    0.09370000
opls_146-1050    H    0.38331000    0.58271002    0.75000000    0.23780000
opls_146-1051    H    0.34900002    0.56687001    0.75000000    0.10500000
opls_146-1052    H    0.34244994    0.50324997    0.75000000    0.10870000
opls_146-1053    H    0.37947002    0.51799004    0.75000000    0.23140000
opls_146-1054    H    0.54892006    0.58464000    0.75000000    0.09260000
opls_146-1055    H    0.58797006    0.60738008    0.75000000    0.11290000
opls_146-1056    H    0.59534000    0.55010999    0.75000000    0.10940000
opls_146-1057    H    0.55668003    0.52677011    0.75000000    0.09380000
opls_146-1058    H    0.42946009    0.69991007    0.75000000    0.08900000
opls_146-1059    H    0.50021001    0.77020011    0.75000000    0.11650000
opls_146-1060    H    0.65603001    0.56797998    0.75000000    0.11210000
opls_146-1061    H    0.70094999    0.64932001    0.75000000    0.11040000
opls_146-1062    H    0.52333000    0.50770003    0.75000000    0.23900000
opls_146-1063    H    0.47577998    0.60029005    0.75000000    0.10600000
opls_562-1064    H    0.43738000    0.51409998    0.75000000    0.25890000
opls_146-1065    H    0.45944000    0.50097001    0.75000000    0.10600000
opls_146-1066    H    0.48089006    0.63075007    0.75000000    0.10370000
opls_146-1067    H    0.48379001    0.66597000    0.75000000    0.11120000
opls_146-1068    H    0.41328000    0.63512004    0.75000000    0.11190000
opls_146-1069    H    0.41289003    0.60084002    0.75000000    0.23840000
opls_146-1070    H    0.51029008    0.47434002    0.75000000    0.09380000
opls_146-1071    H    0.49345001    0.43528003    0.75000000    0.11250000
opls_146-1072    H    0.42924002    0.42888995    0.75000000    0.11420000
opls_146-1073    H    0.44507008    0.46759010    0.75000000    0.09370000
opls_146-1074    H    0.42951010    0.73363009    0.75000000    0.11140000
opls_146-1075    H    0.50084006    0.73521010    0.75000000    0.11340000
opls_146-1076    H    0.69587998    0.58543008    0.75000000    0.11930000
opls_146-1077    H    0.66100996    0.63180000    0.75000000    0.11050000
opls_144-1078    H    0.09309005    0.09943007    0.75000000    0.10170000
opls_144-1079    H    0.02609994    0.16025998    0.75000000    0.11140000
opls_144-1080    H    0.73128010    0.60432007    0.75000000    0.11080000
opls_144-1081    H    0.62539999    0.61270000    0.75000000    0.11700000
opls_146-1082    H    0.92295008    0.13803006    0.75000000    0.23780000
opls_146-1083    H    0.81779003    0.10218993    0.75000000    0.09370000
opls_146-1084    H    0.95011007    0.08388001    0.75000000    0.23790000
opls_146-1085    H    0.98450002    0.09987001    0.75000000    0.10600000
opls_146-1086    H    0.99078993    0.16335996    0.75000000    0.11230000
opls_146-1087    H    0.95378995    0.14849999    0.75000000    0.23150000
opls_146-1088    H    0.78412999    0.08225001    0.75000000    0.22120000
opls_146-1089    H    0.74501004    0.05975004    0.75000000    0.11180000
opls_146-1090    H    0.73815010    0.11730005    0.75000000    0.10940000
opls_146-1091    H    0.77691007    0.14042005    0.75000000    0.09140000
opls_146-1092    H    0.90353012    0.96643013    0.75000000    0.09370000
opls_146-1093    H    0.83276010    0.89623006    0.75000000    0.11620000
opls_146-1094    H    0.67706991    0.09933994    0.75000000    0.11180000
opls_146-1095    H    0.63218998    0.01798001    0.75000000    0.10920000
opls_146-1096    H    0.81033003    0.15925001    0.75000000    0.23890000
opls_146-1097    H    0.85757002    0.06612992    0.75000000    0.10600000
opls_562-1098    H    0.89595996    0.15229993    0.75000000    0.25870000
opls_146-1099    H    0.87405003    0.16553006    0.75000000    0.10650000
opls_146-1100    H    0.85248995    0.03572993    0.75000000    0.10370000
opls_146-1101    H    0.84949998    0.00051000    0.75000000    0.10920000
opls_146-1102    H    0.91998002    0.03119007    0.75000000    0.11290000
opls_146-1103    H    0.92054007    0.06550003    0.75000000    0.23830000
opls_146-1104    H    0.82360005    0.19266001    0.75000000    0.09140000
opls_146-1105    H    0.84065993    0.23175997    0.75000000    0.11120000
opls_146-1106    H    0.90470994    0.23776998    0.75000000    0.11120000
opls_146-1107    H    0.88862999    0.19897000    0.75000000    0.09370000
opls_146-1108    H    0.90342999    0.93274005    0.75000000    0.11190000
opls_146-1109    H    0.83214008    0.93124014    0.75000000    0.11250000
opls_146-1110    H    0.63719999    0.08182997    0.75000000    0.11630000
opls_146-1111    H    0.67213999    0.03552995    0.75000000    0.11050000
opls_144-1112    H    0.24013011    0.56745007    0.75000000    0.10170000
opls_144-1113    H    0.30720001    0.50660997    0.75000000    0.09740000
opls_144-1114    H    0.60179005    0.06292008    0.75000000    0.11240000
opls_144-1115    H    0.70772997    0.05466005    0.75000000    0.11730000
