#======================================================================
# Crystal Data Generated By AuToFF
#----------------------------------------------------------------------

data_AuToFF_phase_1

_cell_length_a                         27.9370
_cell_length_b                         27.9370
_cell_length_c                         74.8012
_cell_angle_alpha                      90.00
_cell_angle_beta                       90.00
_cell_angle_gamma                      90.00
_symmetry_space_group_name_H-M_alt     'P 1'
_symmetry_space_group_IT_number        1

loop_
_space_group_symop_operation_xyz
   'x, y, z'

loop_
   _atom_site_label
   _atom_site_type_symbol
   _atom_site_fract_x
   _atom_site_fract_y
   _atom_site_fract_z
   _atom_site_charge
opls_145-0    C    0.09696997    0.99996993    0.99121003    -0.16920000
opls_166-1    C    0.13267996    0.99995991    0.97710999    0.31150000
opls_700-2    C    0.11448008    0.99994989    0.95946001    -0.02850000
opls_145-3    C    0.06147009    0.99997995    0.95599001    -0.05950000
opls_700-4    C    0.02770985    0.99997995    0.97015997    0.05020000
opls_700-5    C    0.04467015    0.99998998    0.98739993    0.01480000
opls_142-6    C    0.15102015    0.99996993    0.94468003    0.03750000
opls_145-7    C    0.14820990    0.99994989    0.89665995    -0.10520000
opls_145-8    C    0.18019007    0.99996993    0.88192997    -0.08370000
opls_700-9    C    0.23392991    0.00001002    0.88335000    0.01060000
opls_700-10    C    0.25484018    0.99998998    0.90082004    0.14590000
opls_145-11    C    0.22235995    0.00001002    0.91551005    -0.13320000
opls_145-12    C    0.16906003    0.00000000    0.91355005    0.22470000
opls_181-13    C    0.50001002    0.70169990    0.50196000    -0.15770000
opls_148-14    C    0.50002005    0.81077997    0.59513002    -0.33090000
opls_701-15    C    0.00000000    0.00000000    0.00000000    0.03760000
opls_145-16    C    0.40303003    0.50003007    0.49121003    -0.16920000
opls_166-17    C    0.36732004    0.50004009    0.47710999    0.31150000
opls_700-18    C    0.38551992    0.50005011    0.45946001    -0.02850000
opls_145-19    C    0.43852991    0.50002005    0.45599001    -0.05950000
opls_700-20    C    0.47229015    0.50002005    0.47015997    0.05020000
opls_700-21    C    0.45532985    0.50001002    0.48739993    0.01480000
opls_142-22    C    0.34897985    0.50003007    0.44468003    0.03750000
opls_145-23    C    0.35179010    0.50005011    0.39665995    -0.10520000
opls_145-24    C    0.31980993    0.50003007    0.38192997    -0.08370000
opls_700-25    C    0.26607009    0.49998998    0.38335000    0.01060000
opls_700-26    C    0.24515982    0.50001002    0.40082004    0.14570000
opls_145-27    C    0.27764005    0.49998998    0.41551005    -0.13310000
opls_145-28    C    0.33093997    0.50000000    0.41355005    0.22470000
opls_181-29    C    0.99998998    0.79830010    0.00196000    -0.15770000
opls_148-30    C    0.99997995    0.68922003    0.09513002    -0.33080000
opls_701-31    C    0.50000000    0.50000000    0.50000000    0.03760000
opls_145-32    C    0.00003007    0.59696997    0.24121003    -0.16920000
opls_166-33    C    0.00004009    0.63267996    0.22710999    0.31160000
opls_700-34    C    0.00005011    0.61448008    0.20946001    -0.02850000
opls_145-35    C    0.00002005    0.56147009    0.20599001    -0.05950000
opls_700-36    C    0.00002005    0.52770985    0.22015997    0.05020000
opls_700-37    C    0.00001002    0.54467015    0.23739993    0.01480000
opls_142-38    C    0.00003007    0.65102015    0.19468003    0.03750000
opls_145-39    C    0.00005011    0.64820990    0.14665995    -0.10520000
opls_145-40    C    0.00003007    0.68019007    0.13192997    -0.08370000
opls_700-41    C    0.99998998    0.73392991    0.13335000    0.01060000
opls_700-42    C    0.00001002    0.75484018    0.15082004    0.14570000
opls_145-43    C    0.99998998    0.72235995    0.16551005    -0.13320000
opls_145-44    C    0.00000000    0.66906003    0.16355005    0.22470000
opls_181-45    C    0.29830010    0.00001002    0.75196000    -0.15770000
opls_148-46    C    0.18922003    0.00002005    0.84513002    -0.33090000
opls_701-47    C    0.00000000    0.50000000    0.25000000    0.03760000
opls_145-48    C    0.49996993    0.90303003    0.74121003    -0.16910000
opls_166-49    C    0.49995991    0.86732004    0.72710999    0.31150000
opls_700-50    C    0.49994989    0.88551992    0.70946001    -0.02850000
opls_145-51    C    0.49997995    0.93852991    0.70599001    -0.05950000
opls_700-52    C    0.49997995    0.97229015    0.72015997    0.05030000
opls_700-53    C    0.49998998    0.95532985    0.73739993    0.01480000
opls_142-54    C    0.49996993    0.84897985    0.69468003    0.03750000
opls_145-55    C    0.49994989    0.85179010    0.64665995    -0.10520000
opls_145-56    C    0.49996993    0.81980993    0.63192997    -0.08370000
opls_700-57    C    0.50001002    0.76607009    0.63335000    0.01060000
opls_700-58    C    0.49998998    0.74515982    0.65082004    0.14570000
opls_145-59    C    0.50001002    0.77764005    0.66551005    -0.13320000
opls_145-60    C    0.50000000    0.83093997    0.66355005    0.22480000
opls_181-61    C    0.20169990    0.49998998    0.25196000    -0.15770000
opls_148-62    C    0.31077997    0.49997995    0.34513002    -0.33090000
opls_701-63    C    0.50000000    0.00000000    0.75000000    0.03760000
opls_145-64    C    0.90303003    0.50003007    0.25878997    -0.16920000
opls_166-65    C    0.86732004    0.50004009    0.27289001    0.31150000
opls_700-66    C    0.88551992    0.50005011    0.29053999    -0.02850000
opls_145-67    C    0.93852991    0.50002005    0.29400999    -0.05950000
opls_700-68    C    0.97229015    0.50002005    0.27984003    0.05020000
opls_700-69    C    0.95532985    0.50001002    0.26260007    0.01480000
opls_142-70    C    0.84897985    0.50003007    0.30531997    0.03750000
opls_145-71    C    0.85179010    0.50005011    0.35334005    -0.10520000
opls_145-72    C    0.81980993    0.50003007    0.36807003    -0.08370000
opls_700-73    C    0.76607009    0.49998998    0.36665000    0.01060000
opls_700-74    C    0.74515982    0.50001002    0.34917996    0.14570000
opls_145-75    C    0.77764005    0.49998998    0.33448995    -0.13320000
opls_145-76    C    0.83093997    0.50000000    0.33644995    0.22470000
opls_181-77    C    0.49998998    0.79830010    0.74804000    -0.15770000
opls_148-78    C    0.49997995    0.68922003    0.65486998    -0.33090000
opls_145-79    C    0.59696997    0.99996993    0.75878997    -0.16920000
opls_166-80    C    0.63267996    0.99995991    0.77289001    0.31150000
opls_700-81    C    0.61448008    0.99994989    0.79053999    -0.02850000
opls_145-82    C    0.56147009    0.99997995    0.79400999    -0.05950000
opls_700-83    C    0.52770985    0.99997995    0.77984003    0.05020000
opls_700-84    C    0.54467015    0.99998998    0.76260007    0.01480000
opls_142-85    C    0.65102015    0.99996993    0.80531997    0.03750000
opls_145-86    C    0.64820990    0.99994989    0.85334005    -0.10520000
opls_145-87    C    0.68019007    0.99996993    0.86807003    -0.08360000
opls_700-88    C    0.73392991    0.00001002    0.86665000    0.01060000
opls_700-89    C    0.75484018    0.99998998    0.84917996    0.14570000
opls_145-90    C    0.72235995    0.00001002    0.83448995    -0.13320000
opls_145-91    C    0.66906003    0.00000000    0.83644995    0.22470000
opls_181-92    C    0.00001002    0.70169990    0.24804000    -0.15770000
opls_148-93    C    0.00002005    0.81077997    0.15486998    -0.33090000
opls_145-94    C    0.99996993    0.90303003    0.00878997    -0.16920000
opls_166-95    C    0.99995991    0.86732004    0.02289001    0.31150000
opls_700-96    C    0.99994989    0.88551992    0.04053999    -0.02850000
opls_145-97    C    0.99997995    0.93852991    0.04400999    -0.05950000
opls_700-98    C    0.99997995    0.97229015    0.02984003    0.05020000
opls_700-99    C    0.99998998    0.95532985    0.01260007    0.01480000
opls_142-100    C    0.99996993    0.84897985    0.05531997    0.03750000
opls_145-101    C    0.99994989    0.85179010    0.10334005    -0.10520000
opls_145-102    C    0.99996993    0.81980993    0.11807003    -0.08370000
opls_700-103    C    0.00001002    0.76607009    0.11665000    0.01060000
opls_700-104    C    0.99998998    0.74515982    0.09917996    0.14570000
opls_145-105    C    0.00001002    0.77764005    0.08448995    -0.13320000
opls_145-106    C    0.00000000    0.83093997    0.08644995    0.22470000
opls_181-107    C    0.70169990    0.49998998    0.49804000    -0.15770000
opls_148-108    C    0.81077997    0.49997995    0.40486998    -0.33080000
opls_145-109    C    0.50003007    0.59696997    0.50878997    -0.16920000
opls_166-110    C    0.50004009    0.63267996    0.52289001    0.31150000
opls_700-111    C    0.50005011    0.61448008    0.54053999    -0.02850000
opls_145-112    C    0.50002005    0.56147009    0.54400999    -0.05950000
opls_700-113    C    0.50002005    0.52770985    0.52984003    0.05020000
opls_700-114    C    0.50001002    0.54467015    0.51260007    0.01480000
opls_142-115    C    0.50003007    0.65102015    0.55531997    0.03750000
opls_145-116    C    0.50005011    0.64820990    0.60334005    -0.10520000
opls_145-117    C    0.50003007    0.68019007    0.61807003    -0.08370000
opls_700-118    C    0.49998998    0.73392991    0.61665000    0.01060000
opls_700-119    C    0.50001002    0.75484018    0.59917996    0.14570000
opls_145-120    C    0.49998998    0.72235995    0.58448995    -0.13320000
opls_145-121    C    0.50000000    0.66906003    0.58644995    0.22470000
opls_181-122    C    0.79830010    0.00001002    0.99804000    -0.15770000
opls_148-123    C    0.68922003    0.00002005    0.90486998    -0.33090000
opls_145-124    C    0.50003007    0.09696997    0.74121003    -0.16920000
opls_166-125    C    0.50004009    0.13267996    0.72710999    0.31150000
opls_700-126    C    0.50005011    0.11448008    0.70946001    -0.02850000
opls_145-127    C    0.50002005    0.06147009    0.70599001    -0.05950000
opls_700-128    C    0.50002005    0.02770985    0.72015997    0.05020000
opls_700-129    C    0.50001002    0.04467015    0.73739993    0.01480000
opls_142-130    C    0.50003007    0.15102015    0.69468003    0.03750000
opls_145-131    C    0.50005011    0.14820990    0.64665995    -0.10520000
opls_145-132    C    0.50003007    0.18019007    0.63192997    -0.08370000
opls_700-133    C    0.49998998    0.23392991    0.63335000    0.01060000
opls_700-134    C    0.50001002    0.25484018    0.65082004    0.14570000
opls_145-135    C    0.49998998    0.22235995    0.66551005    -0.13320000
opls_145-136    C    0.50000000    0.16906003    0.66355005    0.22470000
opls_181-137    C    0.79830010    0.50001002    0.25196000    -0.15770000
opls_148-138    C    0.68922003    0.50002005    0.34513002    -0.33090000
opls_145-139    C    0.99996993    0.40303003    0.24121003    -0.16920000
opls_166-140    C    0.99995991    0.36732004    0.22710999    0.31150000
opls_700-141    C    0.99994989    0.38551992    0.20946001    -0.02850000
opls_145-142    C    0.99997995    0.43852991    0.20599001    -0.05950000
opls_700-143    C    0.99997995    0.47229015    0.22015997    0.05020000
opls_700-144    C    0.99998998    0.45532985    0.23739993    0.01480000
opls_142-145    C    0.99996993    0.34897985    0.19468003    0.03750000
opls_145-146    C    0.99994989    0.35179010    0.14665995    -0.10510000
opls_145-147    C    0.99996993    0.31980993    0.13192997    -0.08370000
opls_700-148    C    0.00001002    0.26607009    0.13335000    0.01060000
opls_700-149    C    0.99998998    0.24515982    0.15082004    0.14570000
opls_145-150    C    0.00001002    0.27764005    0.16551005    -0.13320000
opls_145-151    C    0.00000000    0.33093997    0.16355005    0.22470000
opls_181-152    C    0.70169990    0.99998998    0.75196000    -0.15770000
opls_148-153    C    0.81077997    0.99997995    0.84513002    -0.33090000
opls_145-154    C    0.90303003    0.00003007    0.99121003    -0.16910000
opls_166-155    C    0.86732004    0.00004009    0.97710999    0.31150000
opls_700-156    C    0.88551992    0.00005011    0.95946001    -0.02850000
opls_145-157    C    0.93852991    0.00002005    0.95599001    -0.05950000
opls_700-158    C    0.97229015    0.00002005    0.97015997    0.05020000
opls_700-159    C    0.95532985    0.00001002    0.98739993    0.01480000
opls_142-160    C    0.84897985    0.00003007    0.94468003    0.03750000
opls_145-161    C    0.85179010    0.00005011    0.89665995    -0.10520000
opls_145-162    C    0.81980993    0.00003007    0.88192997    -0.08370000
opls_700-163    C    0.76607009    0.99998998    0.88335000    0.01060000
opls_700-164    C    0.74515982    0.00001002    0.90082004    0.14570000
opls_145-165    C    0.77764005    0.99998998    0.91551005    -0.13320000
opls_145-166    C    0.83093997    0.00000000    0.91355005    0.22470000
opls_181-167    C    0.49998998    0.29830010    0.50196000    -0.15760000
opls_148-168    C    0.49997995    0.18922003    0.59513002    -0.33090000
opls_145-169    C    0.59696997    0.49996993    0.49121003    -0.16910000
opls_166-170    C    0.63267996    0.49995991    0.47710999    0.31150000
opls_700-171    C    0.61448008    0.49994989    0.45946001    -0.02850000
opls_145-172    C    0.56147009    0.49997995    0.45599001    -0.05950000
opls_700-173    C    0.52770985    0.49997995    0.47015997    0.05020000
opls_700-174    C    0.54467015    0.49998998    0.48739993    0.01480000
opls_142-175    C    0.65102015    0.49996993    0.44468003    0.03750000
opls_145-176    C    0.64820990    0.49994989    0.39665995    -0.10510000
opls_145-177    C    0.68019007    0.49996993    0.38192997    -0.08360000
opls_700-178    C    0.73392991    0.50001002    0.38335000    0.01060000
opls_700-179    C    0.75484018    0.49998998    0.40082004    0.14570000
opls_145-180    C    0.72235995    0.50001002    0.41551005    -0.13320000
opls_145-181    C    0.66906003    0.50000000    0.41355005    0.22470000
opls_181-182    C    0.00001002    0.20169990    0.00196000    -0.15770000
opls_148-183    C    0.00002005    0.31077997    0.09513002    -0.33080000
opls_145-184    C    0.40303003    0.00003007    0.75878997    -0.16910000
opls_166-185    C    0.36732004    0.00004009    0.77289001    0.31150000
opls_700-186    C    0.38551992    0.00005011    0.79053999    -0.02850000
opls_145-187    C    0.43852991    0.00002005    0.79400999    -0.05950000
opls_700-188    C    0.47229015    0.00002005    0.77984003    0.05020000
opls_700-189    C    0.45532985    0.00001002    0.76260007    0.01480000
opls_142-190    C    0.34897985    0.00003007    0.80531997    0.03750000
opls_145-191    C    0.35179010    0.00005011    0.85334005    -0.10520000
opls_145-192    C    0.31980993    0.00003007    0.86807003    -0.08370000
opls_700-193    C    0.26607009    0.99998998    0.86665000    0.01060000
opls_700-194    C    0.24515982    0.00001002    0.84917996    0.14570000
opls_145-195    C    0.27764005    0.99998998    0.83448995    -0.13320000
opls_145-196    C    0.33093997    0.00000000    0.83644995    0.22470000
opls_181-197    C    0.99998998    0.29830010    0.24804000    -0.15770000
opls_148-198    C    0.99997995    0.18922003    0.15486998    -0.33090000
opls_145-199    C    0.09696997    0.49996993    0.25878997    -0.16920000
opls_166-200    C    0.13267996    0.49995991    0.27289001    0.31150000
opls_700-201    C    0.11448008    0.49994989    0.29053999    -0.02850000
opls_145-202    C    0.06147009    0.49997995    0.29400999    -0.05950000
opls_700-203    C    0.02770985    0.49997995    0.27984003    0.05020000
opls_700-204    C    0.04467015    0.49998998    0.26260007    0.01480000
opls_142-205    C    0.15102015    0.49996993    0.30531997    0.03750000
opls_145-206    C    0.14820990    0.49994989    0.35334005    -0.10520000
opls_145-207    C    0.18019007    0.49996993    0.36807003    -0.08370000
opls_700-208    C    0.23392991    0.50001002    0.36665000    0.01060000
opls_700-209    C    0.25484018    0.49998998    0.34917996    0.14570000
opls_145-210    C    0.22235995    0.50001002    0.33448995    -0.13320000
opls_145-211    C    0.16906003    0.50000000    0.33644995    0.22480000
opls_181-212    C    0.50001002    0.20169990    0.74804000    -0.15770000
opls_148-213    C    0.50002005    0.31077997    0.65486998    -0.33080000
opls_145-214    C    0.49996993    0.40303003    0.50878997    -0.16920000
opls_166-215    C    0.49995991    0.36732004    0.52289001    0.31160000
opls_700-216    C    0.49994989    0.38551992    0.54053999    -0.02850000
opls_145-217    C    0.49997995    0.43852991    0.54400999    -0.05950000
opls_700-218    C    0.49997995    0.47229015    0.52984003    0.05020000
opls_700-219    C    0.49998998    0.45532985    0.51260007    0.01480000
opls_142-220    C    0.49996993    0.34897985    0.55531997    0.03760000
opls_145-221    C    0.49994989    0.35179010    0.60334005    -0.10520000
opls_145-222    C    0.49996993    0.31980993    0.61807003    -0.08370000
opls_700-223    C    0.50001002    0.26607009    0.61665000    0.01060000
opls_700-224    C    0.49998998    0.24515982    0.59917996    0.14570000
opls_145-225    C    0.50001002    0.27764005    0.58448995    -0.13320000
opls_145-226    C    0.50000000    0.33093997    0.58644995    0.22470000
opls_181-227    C    0.20169990    0.99998998    0.99804000    -0.15770000
opls_148-228    C    0.31077997    0.99997995    0.90486998    -0.33070000
opls_145-229    C    0.00003007    0.09696997    0.00878997    -0.16920000
opls_166-230    C    0.00004009    0.13267996    0.02289001    0.31150000
opls_700-231    C    0.00005011    0.11448008    0.04053999    -0.02850000
opls_145-232    C    0.00002005    0.06147009    0.04400999    -0.05950000
opls_700-233    C    0.00002005    0.02770985    0.02984003    0.05020000
opls_700-234    C    0.00001002    0.04467015    0.01260007    0.01480000
opls_142-235    C    0.00003007    0.15102015    0.05531997    0.03750000
opls_145-236    C    0.00005011    0.14820990    0.10334005    -0.10520000
opls_145-237    C    0.00003007    0.18019007    0.11807003    -0.08370000
opls_700-238    C    0.99998998    0.23392991    0.11665000    0.01060000
opls_700-239    C    0.00001002    0.25484018    0.09917996    0.14570000
opls_145-240    C    0.99998998    0.22235995    0.08448995    -0.13320000
opls_145-241    C    0.00000000    0.16906003    0.08644995    0.22470000
opls_181-242    C    0.29830010    0.50001002    0.49804000    -0.15760000
opls_148-243    C    0.18922003    0.50002005    0.40486998    -0.33090000
opls_750-244    N    0.50002005    0.63529012    0.57155995    -0.27430000
opls_750-245    N    0.99997995    0.86470988    0.07155995    -0.27440000
opls_750-246    N    0.36470988    0.00002005    0.82155995    -0.27450000
opls_750-247    N    0.13529012    0.49997995    0.32155995    -0.27450000
opls_750-248    N    0.49997995    0.86470988    0.67844005    -0.27450000
opls_750-249    N    0.00002005    0.63529012    0.17844005    -0.27440000
opls_750-250    N    0.63529012    0.49997995    0.42844005    -0.27440000
opls_750-251    N    0.86470988    0.00002005    0.92844005    -0.27450000
opls_750-252    N    0.86470988    0.50002005    0.32155995    -0.27450000
opls_750-253    N    0.63529012    0.99997995    0.82155995    -0.27440000
opls_750-254    N    0.49997995    0.36470988    0.57155995    -0.27440000
opls_750-255    N    0.00002005    0.13529012    0.07155995    -0.27450000
opls_750-256    N    0.99997995    0.36470988    0.17844005    -0.27440000
opls_750-257    N    0.50002005    0.13529012    0.67844005    -0.27450000
opls_750-258    N    0.13529012    0.99997995    0.92844005    -0.27450000
opls_750-259    N    0.36470988    0.50002005    0.42844005    -0.27440000
opls_179-260    O    0.50004009    0.68596986    0.51995997    -0.18840000
opls_179-261    O    0.99995991    0.81403014    0.01995997    -0.18840000
opls_179-262    O    0.31403014    0.00004009    0.76995997    -0.18840000
opls_179-263    O    0.18596986    0.49995991    0.26995997    -0.18830000
opls_179-264    O    0.49995991    0.81403014    0.73004003    -0.18840000
opls_179-265    O    0.00004009    0.68596986    0.23004003    -0.18840000
opls_179-266    O    0.68596986    0.49995991    0.48004003    -0.18840000
opls_179-267    O    0.81403014    0.00004009    0.98004003    -0.18840000
opls_179-268    O    0.81403014    0.50004009    0.26995997    -0.18840000
opls_179-269    O    0.68596986    0.99995991    0.76995997    -0.18840000
opls_179-270    O    0.49995991    0.31403014    0.51995997    -0.18840000
opls_179-271    O    0.00004009    0.18596986    0.01995997    -0.18840000
opls_179-272    O    0.99995991    0.31403014    0.23004003    -0.18840000
opls_179-273    O    0.50004009    0.18596986    0.73004003    -0.18840000
opls_179-274    O    0.18596986    0.99995991    0.98004003    -0.18840000
opls_179-275    O    0.31403014    0.50004009    0.48004003    -0.18840000
opls_146-276    H    0.23925010    0.00003007    0.92939004    0.04830000
opls_185-277    H    0.52055983    0.67172996    0.49361000    0.06240000
opls_185-278    H    0.52062999    0.74005011    0.50068996    0.06000000
opls_185-279    H    0.45880016    0.70594015    0.49716997    0.06100000
opls_702-280    H    0.52060994    0.81768014    0.58206994    0.09690000
opls_702-281    H    0.52061997    0.83238000    0.60611996    0.09540000
opls_702-282    H    0.45881984    0.82503991    0.59409996    0.09370000
opls_146-283    H    0.11112002    0.99996993    0.00545005    0.04920000
opls_146-284    H    0.04707986    0.99998998    0.94177994    0.04880000
opls_144-285    H    0.19399005    0.99996993    0.94739002    0.02040000
opls_146-286    H    0.10482013    0.99989011    0.89488003    0.04180000
opls_146-287    H    0.16296990    0.99995991    0.86809998    0.04830000
opls_146-288    H    0.26074990    0.49996993    0.42939004    0.04840000
opls_185-289    H    0.97944017    0.82827004    0.99361000    0.06240000
opls_185-290    H    0.97937001    0.75994989    0.00068996    0.06010000
opls_185-291    H    0.04119984    0.79405985    0.99716997    0.06100000
opls_702-292    H    0.97939006    0.68231986    0.08206994    0.09690000
opls_702-293    H    0.97938003    0.66762000    0.10611996    0.09540000
opls_702-294    H    0.04118016    0.67496009    0.09409996    0.09370000
opls_146-295    H    0.38887998    0.50003007    0.50545005    0.04910000
opls_146-296    H    0.45292014    0.50001002    0.44177994    0.04880000
opls_144-297    H    0.30600995    0.50003007    0.44739002    0.02040000
opls_146-298    H    0.39517987    0.50010989    0.39488003    0.04180000
opls_146-299    H    0.33703010    0.50004009    0.36809998    0.04840000
opls_146-300    H    0.99996993    0.73925010    0.17939004    0.04830000
opls_185-301    H    0.32827004    0.02055983    0.74361000    0.06240000
opls_185-302    H    0.25994989    0.02062999    0.75068996    0.06000000
opls_185-303    H    0.29405985    0.95880016    0.74716997    0.06100000
opls_702-304    H    0.18231986    0.02060994    0.83206994    0.09700000
opls_702-305    H    0.16762000    0.02061997    0.85611996    0.09540000
opls_702-306    H    0.17496009    0.95881984    0.84409996    0.09370000
opls_146-307    H    0.00003007    0.61112002    0.25545005    0.04910000
opls_146-308    H    0.00001002    0.54707986    0.19177994    0.04880000
opls_144-309    H    0.00003007    0.69399005    0.19739002    0.02040000
opls_146-310    H    0.00010989    0.60482013    0.14488003    0.04180000
opls_146-311    H    0.00004009    0.66296990    0.11809998    0.04830000
opls_146-312    H    0.50003007    0.76074990    0.67939004    0.04830000
opls_185-313    H    0.17172996    0.47944017    0.24361000    0.06240000
opls_185-314    H    0.24005011    0.47937001    0.25068996    0.06000000
opls_185-315    H    0.20594015    0.54119984    0.24716997    0.06100000
opls_702-316    H    0.31768014    0.47939006    0.33206994    0.09690000
opls_702-317    H    0.33238000    0.47938003    0.35611996    0.09540000
opls_702-318    H    0.32503991    0.54118016    0.34409996    0.09370000
opls_146-319    H    0.49996993    0.88887998    0.75545005    0.04910000
opls_146-320    H    0.49998998    0.95292014    0.69177994    0.04880000
opls_144-321    H    0.49996993    0.80600995    0.69739002    0.02040000
opls_146-322    H    0.49989011    0.89517987    0.64488003    0.04180000
opls_146-323    H    0.49995991    0.83703010    0.61809998    0.04830000
opls_146-324    H    0.76074990    0.49996993    0.32060996    0.04830000
opls_185-325    H    0.47944017    0.82827004    0.75639000    0.06240000
opls_185-326    H    0.47937001    0.75994989    0.74931004    0.06000000
opls_185-327    H    0.54119984    0.79405985    0.75283003    0.06100000
opls_702-328    H    0.47939006    0.68231986    0.66793006    0.09690000
opls_702-329    H    0.47938003    0.66762000    0.64388004    0.09540000
opls_702-330    H    0.54118016    0.67496009    0.65590004    0.09380000
opls_146-331    H    0.88887998    0.50003007    0.24454995    0.04910000
opls_146-332    H    0.95292014    0.50001002    0.30822006    0.04880000
opls_144-333    H    0.80600995    0.50003007    0.30260998    0.02040000
opls_146-334    H    0.89517987    0.50010989    0.35511997    0.04180000
opls_146-335    H    0.83703010    0.50004009    0.38190002    0.04830000
opls_146-336    H    0.73925010    0.00003007    0.82060996    0.04830000
opls_185-337    H    0.02055983    0.67172996    0.25639000    0.06240000
opls_185-338    H    0.02062999    0.74005011    0.24931004    0.06000000
opls_185-339    H    0.95880016    0.70594015    0.25283003    0.06100000
opls_702-340    H    0.02060994    0.81768014    0.16793006    0.09690000
opls_702-341    H    0.02061997    0.83238000    0.14388004    0.09540000
opls_702-342    H    0.95881984    0.82503991    0.15590004    0.09370000
opls_146-343    H    0.61112002    0.99996993    0.74454995    0.04910000
opls_146-344    H    0.54707986    0.99998998    0.80822006    0.04880000
opls_144-345    H    0.69399005    0.99996993    0.80260998    0.02040000
opls_146-346    H    0.60482013    0.99989011    0.85511997    0.04180000
opls_146-347    H    0.66296990    0.99995991    0.88190002    0.04830000
opls_146-348    H    0.00003007    0.76074990    0.07060996    0.04830000
opls_185-349    H    0.67172996    0.47944017    0.50639000    0.06240000
opls_185-350    H    0.74005011    0.47937001    0.49931004    0.06000000
opls_185-351    H    0.70594015    0.54119984    0.50283003    0.06100000
opls_702-352    H    0.81768014    0.47939006    0.41793006    0.09690000
opls_702-353    H    0.83238000    0.47938003    0.39388004    0.09540000
opls_702-354    H    0.82503991    0.54118016    0.40590004    0.09370000
opls_146-355    H    0.99996993    0.88887998    0.99454995    0.04910000
opls_146-356    H    0.99998998    0.95292014    0.05822006    0.04880000
opls_144-357    H    0.99996993    0.80600995    0.05260998    0.02040000
opls_146-358    H    0.99989011    0.89517987    0.10511997    0.04180000
opls_146-359    H    0.99995991    0.83703010    0.13190002    0.04830000
opls_146-360    H    0.49996993    0.73925010    0.57060996    0.04830000
opls_185-361    H    0.82827004    0.02055983    0.00639000    0.06240000
opls_185-362    H    0.75994989    0.02062999    0.99931004    0.06010000
opls_185-363    H    0.79405985    0.95880016    0.00283003    0.06100000
opls_702-364    H    0.68231986    0.02060994    0.91793006    0.09690000
opls_702-365    H    0.66762000    0.02061997    0.89388004    0.09540000
opls_702-366    H    0.67496009    0.95881984    0.90590004    0.09370000
opls_146-367    H    0.50003007    0.61112002    0.49454995    0.04910000
opls_146-368    H    0.50001002    0.54707986    0.55822006    0.04880000
opls_144-369    H    0.50003007    0.69399005    0.55260998    0.02040000
opls_146-370    H    0.50010989    0.60482013    0.60511997    0.04180000
opls_146-371    H    0.50004009    0.66296990    0.63190002    0.04830000
opls_146-372    H    0.49996993    0.23925010    0.67939004    0.04830000
opls_185-373    H    0.82827004    0.52055983    0.24361000    0.06240000
opls_185-374    H    0.75994989    0.52062999    0.25068996    0.06000000
opls_185-375    H    0.79405985    0.45880016    0.24716997    0.06100000
opls_702-376    H    0.68231986    0.52060994    0.33206994    0.09690000
opls_702-377    H    0.66762000    0.52061997    0.35611996    0.09540000
opls_702-378    H    0.67496009    0.45881984    0.34409996    0.09380000
opls_146-379    H    0.50003007    0.11112002    0.75545005    0.04910000
opls_146-380    H    0.50001002    0.04707986    0.69177994    0.04880000
opls_144-381    H    0.50003007    0.19399005    0.69739002    0.02040000
opls_146-382    H    0.50010989    0.10482013    0.64488003    0.04180000
opls_146-383    H    0.50004009    0.16296990    0.61809998    0.04830000
opls_146-384    H    0.00003007    0.26074990    0.17939004    0.04830000
opls_185-385    H    0.67172996    0.97944017    0.74361000    0.06240000
opls_185-386    H    0.74005011    0.97937001    0.75068996    0.06000000
opls_185-387    H    0.70594015    0.04119984    0.74716997    0.06100000
opls_702-388    H    0.81768014    0.97939006    0.83206994    0.09690000
opls_702-389    H    0.83238000    0.97938003    0.85611996    0.09540000
opls_702-390    H    0.82503991    0.04118016    0.84409996    0.09370000
opls_146-391    H    0.99996993    0.38887998    0.25545005    0.04910000
opls_146-392    H    0.99998998    0.45292014    0.19177994    0.04880000
opls_144-393    H    0.99996993    0.30600995    0.19739002    0.02040000
opls_146-394    H    0.99989011    0.39517987    0.14488003    0.04180000
opls_146-395    H    0.99995991    0.33703010    0.11809998    0.04830000
opls_146-396    H    0.76074990    0.99996993    0.92939004    0.04830000
opls_185-397    H    0.47944017    0.32827004    0.49361000    0.06240000
opls_185-398    H    0.47937001    0.25994989    0.50068996    0.06000000
opls_185-399    H    0.54119984    0.29405985    0.49716997    0.06100000
opls_702-400    H    0.47939006    0.18231986    0.58206994    0.09690000
opls_702-401    H    0.47938003    0.16762000    0.60611996    0.09540000
opls_702-402    H    0.54118016    0.17496009    0.59409996    0.09370000
opls_146-403    H    0.88887998    0.00003007    0.00545005    0.04910000
opls_146-404    H    0.95292014    0.00001002    0.94177994    0.04880000
opls_144-405    H    0.80600995    0.00003007    0.94739002    0.02040000
opls_146-406    H    0.89517987    0.00010989    0.89488003    0.04180000
opls_146-407    H    0.83703010    0.00004009    0.86809998    0.04840000
opls_146-408    H    0.73925010    0.50003007    0.42939004    0.04830000
opls_185-409    H    0.02055983    0.17172996    0.99361000    0.06240000
opls_185-410    H    0.02062999    0.24005011    0.00068996    0.06000000
opls_185-411    H    0.95880016    0.20594015    0.99716997    0.06100000
opls_702-412    H    0.02060994    0.31768014    0.08206994    0.09690000
opls_702-413    H    0.02061997    0.33238000    0.10611996    0.09540000
opls_702-414    H    0.95881984    0.32503991    0.09409996    0.09370000
opls_146-415    H    0.61112002    0.49996993    0.50545005    0.04910000
opls_146-416    H    0.54707986    0.49998998    0.44177994    0.04880000
opls_144-417    H    0.69399005    0.49996993    0.44739002    0.02040000
opls_146-418    H    0.60482013    0.49989011    0.39488003    0.04180000
opls_146-419    H    0.66296990    0.49995991    0.36809998    0.04830000
opls_146-420    H    0.26074990    0.99996993    0.82060996    0.04830000
opls_185-421    H    0.97944017    0.32827004    0.25639000    0.06240000
opls_185-422    H    0.97937001    0.25994989    0.24931004    0.06010000
opls_185-423    H    0.04119984    0.29405985    0.25283003    0.06110000
opls_702-424    H    0.97939006    0.18231986    0.16793006    0.09690000
opls_702-425    H    0.97938003    0.16762000    0.14388004    0.09540000
opls_702-426    H    0.04118016    0.17496009    0.15590004    0.09370000
opls_146-427    H    0.38887998    0.00003007    0.74454995    0.04910000
opls_146-428    H    0.45292014    0.00001002    0.80822006    0.04880000
opls_144-429    H    0.30600995    0.00003007    0.80260998    0.02040000
opls_146-430    H    0.39517987    0.00010989    0.85511997    0.04180000
opls_146-431    H    0.33703010    0.00004009    0.88190002    0.04830000
opls_146-432    H    0.23925010    0.50003007    0.32060996    0.04830000
opls_185-433    H    0.52055983    0.17172996    0.75639000    0.06240000
opls_185-434    H    0.52062999    0.24005011    0.74931004    0.06000000
opls_185-435    H    0.45880016    0.20594015    0.75283003    0.06100000
opls_702-436    H    0.52060994    0.31768014    0.66793006    0.09690000
opls_702-437    H    0.52061997    0.33238000    0.64388004    0.09550000
opls_702-438    H    0.45881984    0.32503991    0.65590004    0.09370000
opls_146-439    H    0.11112002    0.49996993    0.24454995    0.04910000
opls_146-440    H    0.04707986    0.49998998    0.30822006    0.04880000
opls_144-441    H    0.19399005    0.49996993    0.30260998    0.02040000
opls_146-442    H    0.10482013    0.49989011    0.35511997    0.04180000
opls_146-443    H    0.16296990    0.49995991    0.38190002    0.04830000
opls_146-444    H    0.50003007    0.26074990    0.57060996    0.04830000
opls_185-445    H    0.17172996    0.97944017    0.00639000    0.06240000
opls_185-446    H    0.24005011    0.97937001    0.99931004    0.06000000
opls_185-447    H    0.20594015    0.04119984    0.00283003    0.06100000
opls_702-448    H    0.31768014    0.97939006    0.91793006    0.09690000
opls_702-449    H    0.33238000    0.97938003    0.89388004    0.09550000
opls_702-450    H    0.32503991    0.04118016    0.90590004    0.09370000
opls_146-451    H    0.49996993    0.38887998    0.49454995    0.04910000
opls_146-452    H    0.49998998    0.45292014    0.55822006    0.04880000
opls_144-453    H    0.49996993    0.30600995    0.55260998    0.02040000
opls_146-454    H    0.49989011    0.39517987    0.60511997    0.04180000
opls_146-455    H    0.49995991    0.33703010    0.63190002    0.04830000
opls_146-456    H    0.99996993    0.23925010    0.07060996    0.04830000
opls_185-457    H    0.32827004    0.52055983    0.50639000    0.06240000
opls_185-458    H    0.25994989    0.52062999    0.49931004    0.06000000
opls_185-459    H    0.29405985    0.45880016    0.50283003    0.06100000
opls_702-460    H    0.18231986    0.52060994    0.41793006    0.09690000
opls_702-461    H    0.16762000    0.52061997    0.39388004    0.09540000
opls_702-462    H    0.17496009    0.45881984    0.40590004    0.09370000
opls_146-463    H    0.00003007    0.11112002    0.99454995    0.04910000
opls_146-464    H    0.00001002    0.04707986    0.05822006    0.04880000
opls_144-465    H    0.00003007    0.19399005    0.05260998    0.02040000
opls_146-466    H    0.00010989    0.10482013    0.10511997    0.04180000
opls_146-467    H    0.00004009    0.16296990    0.13190002    0.04830000
