#======================================================================
# Crystal Data Generated By AuToFF
#----------------------------------------------------------------------

data_AuToFF_phase_1

_cell_length_a                         45.3013
_cell_length_b                         48.8943
_cell_length_c                         3.9176
_cell_angle_alpha                      90.00
_cell_angle_beta                       74.53
_cell_angle_gamma                      90.00
_symmetry_space_group_name_H-M_alt     'P 1'
_symmetry_space_group_IT_number        1

loop_
_space_group_symop_operation_xyz
   'x, y, z'

loop_
   _atom_site_label
   _atom_site_type_symbol
   _atom_site_fract_x
   _atom_site_fract_y
   _atom_site_fract_z
   _atom_site_charge
opls_700-0    C    0.44881004    0.54978004    0.39972032    -0.07140000
opls_716-1    C    0.48565990    0.58667002    0.47827020    -0.18950000
opls_507-2    C    0.47719992    0.55829003    0.45482018    0.21520000
opls_543-3    C    0.44098004    0.52249996    0.36426984    0.17430000
opls_716-4    C    0.41340991    0.51404008    0.26712998    -0.17400000
opls_700-5    C    0.42606992    0.57099007    0.38606983    0.06660000
opls_145-6    C    0.43387997    0.59499001    0.18442987    -0.13000000
opls_145-7    C    0.41246987    0.61527990    0.18297053    -0.17560000
opls_145-8    C    0.38179995    0.61225010    0.38244930    0.19650000
opls_145-9    C    0.37369002    0.58802008    0.58260080    -0.19120000
opls_145-10    C    0.39537001    0.56796007    0.58391976    -0.12990000
opls_567-11    C    0.31124003    0.65220997    0.52901059    -0.02870000
opls_567-12    C    0.28732004    0.69680004    0.44021093    -0.04550000
opls_716-13    C    0.26611006    0.67756998    0.62992989    -0.14040000
opls_716-14    C    0.27947998    0.65247994    0.67595062    -0.12870000
opls_543-15    C    0.27822004    0.72447995    0.38185073    0.15450000
opls_234-16    C    0.27862010    0.76894996    0.17247973    0.42410000
opls_700-17    C    0.25016999    0.73620995    0.55961957    -0.20630000
opls_142-18    C    0.33238004    0.63029003    0.52925955    0.06570000
opls_245-19    C    0.32378995    0.73905997    0.90268004    -0.09230000
opls_137-20    C    0.34978001    0.75522996    0.99020047    0.00760000
opls_136-21    C    0.37830000    0.73739004    0.90968008    -0.16020000
opls_136-22    C    0.40453005    0.74982994    0.02502059    -0.14430000
opls_136-23    C    0.43180990    0.73095003    0.94982109    -0.12430000
opls_135-24    C    0.45808008    0.74415995    0.05899054    -0.38500000
opls_136-25    C    0.35439983    0.78226992    0.79036150    -0.13330000
opls_135-26    C    0.36737991    0.80496990    0.96770127    -0.38490000
opls_700-27    C    0.94881004    0.04978004    0.39972032    -0.07140000
opls_716-28    C    0.98565990    0.08667002    0.47827020    -0.18950000
opls_507-29    C    0.97719992    0.05829003    0.45482018    0.21520000
opls_543-30    C    0.94098004    0.02249996    0.36426984    0.17440000
opls_716-31    C    0.91340991    0.01404008    0.26712998    -0.17400000
opls_700-32    C    0.92606992    0.07099007    0.38606983    0.06660000
opls_145-33    C    0.93387997    0.09499001    0.18442987    -0.13000000
opls_145-34    C    0.91246987    0.11527990    0.18297053    -0.17560000
opls_145-35    C    0.88179995    0.11225010    0.38244930    0.19630000
opls_145-36    C    0.87369002    0.08802008    0.58260080    -0.19110000
opls_145-37    C    0.89537001    0.06796007    0.58391976    -0.12990000
opls_567-38    C    0.81124003    0.15220997    0.52901059    -0.02870000
opls_567-39    C    0.78732004    0.19680004    0.44021093    -0.04550000
opls_716-40    C    0.76611006    0.17756998    0.62992989    -0.14040000
opls_716-41    C    0.77947998    0.15247994    0.67595062    -0.12870000
opls_543-42    C    0.77822004    0.22447995    0.38185073    0.15450000
opls_234-43    C    0.77862010    0.26894996    0.17247973    0.42410000
opls_700-44    C    0.75016999    0.23620995    0.55961957    -0.20630000
opls_142-45    C    0.83238004    0.13029003    0.52925955    0.06570000
opls_245-46    C    0.82378995    0.23905997    0.90268004    -0.09230000
opls_137-47    C    0.84978001    0.25522996    0.99020047    0.00760000
opls_136-48    C    0.87830000    0.23739004    0.90968008    -0.16020000
opls_136-49    C    0.90453005    0.24982994    0.02502059    -0.14430000
opls_136-50    C    0.93180990    0.23095003    0.94982109    -0.12430000
opls_135-51    C    0.95808008    0.24415995    0.05899054    -0.38490000
opls_136-52    C    0.85439983    0.28226992    0.79036150    -0.13330000
opls_135-53    C    0.86737991    0.30496990    0.96770127    -0.38500000
opls_700-54    C    0.55118996    0.54978004    0.60027968    -0.07140000
opls_716-55    C    0.51433988    0.58667002    0.52172980    -0.18950000
opls_507-56    C    0.52280008    0.55829003    0.54517982    0.21520000
opls_543-57    C    0.55901996    0.52249996    0.63573016    0.16870000
opls_716-58    C    0.58658986    0.51404008    0.73287002    -0.17400000
opls_700-59    C    0.57392986    0.57099007    0.61393017    0.06660000
opls_145-60    C    0.56612003    0.59499001    0.81557013    -0.13000000
opls_145-61    C    0.58752985    0.61527990    0.81703212    -0.17550000
opls_145-62    C    0.61820005    0.61225010    0.61755070    0.19630000
opls_145-63    C    0.62630998    0.58802008    0.41739920    -0.19120000
opls_145-64    C    0.60462999    0.56796007    0.41608024    -0.12990000
opls_567-65    C    0.68875997    0.65220997    0.47098941    -0.02870000
opls_567-66    C    0.71267990    0.69680004    0.55979172    -0.04550000
opls_716-67    C    0.73388994    0.67756998    0.37007011    -0.14040000
opls_716-68    C    0.72052002    0.65247994    0.32404938    -0.12870000
opls_543-69    C    0.72177990    0.72447995    0.61815191    0.15450000
opls_234-70    C    0.72137990    0.76894996    0.82752027    0.42410000
opls_700-71    C    0.74983001    0.73620995    0.44038043    -0.20630000
opls_142-72    C    0.66761996    0.63029003    0.47074045    0.06570000
opls_245-73    C    0.67621005    0.73905997    0.09731996    -0.09230000
opls_137-74    C    0.65021999    0.75522996    0.00979953    0.00760000
opls_136-75    C    0.62170000    0.73739004    0.09031992    -0.16020000
opls_136-76    C    0.59546989    0.74982994    0.97498206    -0.14430000
opls_136-77    C    0.56819010    0.73095003    0.05017891    -0.12430000
opls_135-78    C    0.54191986    0.74415995    0.94101211    -0.38500000
opls_136-79    C    0.64559989    0.78226992    0.20964115    -0.13330000
opls_135-80    C    0.63262009    0.80496990    0.03229873    -0.38500000
opls_700-81    C    0.05118996    0.04978004    0.60027968    -0.07140000
opls_716-82    C    0.01433988    0.08667002    0.52172980    -0.18950000
opls_507-83    C    0.02280008    0.05829003    0.54517982    0.21520000
opls_543-84    C    0.05901996    0.02249996    0.63573016    0.16870000
opls_716-85    C    0.08658986    0.01404008    0.73287002    -0.17400000
opls_700-86    C    0.07392986    0.07099007    0.61393017    0.06660000
opls_145-87    C    0.06612003    0.09499001    0.81557013    -0.13000000
opls_145-88    C    0.08752985    0.11527990    0.81703212    -0.17560000
opls_145-89    C    0.11820005    0.11225010    0.61755070    0.19630000
opls_145-90    C    0.12630998    0.08802008    0.41739920    -0.19120000
opls_145-91    C    0.10462999    0.06796007    0.41608024    -0.12990000
opls_567-92    C    0.18875997    0.15220997    0.47098941    -0.02870000
opls_567-93    C    0.21267990    0.19680004    0.55979172    -0.04550000
opls_716-94    C    0.23388994    0.17756998    0.37007011    -0.14040000
opls_716-95    C    0.22052002    0.15247994    0.32404938    -0.12870000
opls_543-96    C    0.22177990    0.22447995    0.61815191    0.15450000
opls_234-97    C    0.22137990    0.26894996    0.82752027    0.42410000
opls_700-98    C    0.24983001    0.23620995    0.44038043    -0.20630000
opls_142-99    C    0.16761996    0.13029003    0.47074045    0.06570000
opls_245-100    C    0.17621005    0.23905997    0.09731996    -0.09230000
opls_137-101    C    0.15021999    0.25522996    0.00979953    0.00760000
opls_136-102    C    0.12170000    0.23739004    0.09031992    -0.16020000
opls_136-103    C    0.09546989    0.24982994    0.97498206    -0.14430000
opls_136-104    C    0.06819010    0.23095003    0.05017891    -0.12430000
opls_135-105    C    0.04191986    0.24415995    0.94101211    -0.38500000
opls_136-106    C    0.14559989    0.28226992    0.20964115    -0.13330000
opls_135-107    C    0.13262009    0.30496990    0.03229873    -0.38500000
opls_700-108    C    0.55118996    0.45021996    0.60027968    -0.07140000
opls_716-109    C    0.51433988    0.41332998    0.52172980    -0.18950000
opls_507-110    C    0.52280008    0.44170997    0.54517982    0.21520000
opls_543-111    C    0.55901996    0.47750004    0.63573016    0.16880000
opls_716-112    C    0.58658986    0.48595992    0.73287002    -0.17400000
opls_700-113    C    0.57392986    0.42900993    0.61393017    0.06660000
opls_145-114    C    0.56612003    0.40500999    0.81557013    -0.13000000
opls_145-115    C    0.58752985    0.38472010    0.81703212    -0.17560000
opls_145-116    C    0.61820005    0.38774990    0.61755070    0.19630000
opls_145-117    C    0.62630998    0.41197992    0.41739920    -0.19120000
opls_145-118    C    0.60462999    0.43203993    0.41608024    -0.12990000
opls_567-119    C    0.68875997    0.34779003    0.47098941    -0.02870000
opls_567-120    C    0.71267990    0.30319996    0.55979172    -0.04550000
opls_716-121    C    0.73388994    0.32243002    0.37007011    -0.14040000
opls_716-122    C    0.72052002    0.34752006    0.32404938    -0.12870000
opls_543-123    C    0.72177990    0.27552005    0.61815191    0.15450000
opls_234-124    C    0.72137990    0.23105004    0.82752027    0.42410000
opls_700-125    C    0.74983001    0.26379005    0.44038043    -0.20630000
opls_142-126    C    0.66761996    0.36970997    0.47074045    0.06570000
opls_245-127    C    0.67621005    0.26094003    0.09731996    -0.09230000
opls_137-128    C    0.65021999    0.24477004    0.00979953    0.00760000
opls_136-129    C    0.62170000    0.26260996    0.09031992    -0.16020000
opls_136-130    C    0.59546989    0.25017006    0.97498206    -0.14430000
opls_136-131    C    0.56819010    0.26904997    0.05017891    -0.12430000
opls_135-132    C    0.54191986    0.25584005    0.94101211    -0.38500000
opls_136-133    C    0.64559989    0.21773008    0.20964115    -0.13330000
opls_135-134    C    0.63262009    0.19503010    0.03229873    -0.38500000
opls_700-135    C    0.05118996    0.95021996    0.60027968    -0.07140000
opls_716-136    C    0.01433988    0.91332998    0.52172980    -0.18950000
opls_507-137    C    0.02280008    0.94170997    0.54517982    0.21520000
opls_543-138    C    0.05901996    0.97750004    0.63573016    0.16870000
opls_716-139    C    0.08658986    0.98595992    0.73287002    -0.17400000
opls_700-140    C    0.07392986    0.92900993    0.61393017    0.06660000
opls_145-141    C    0.06612003    0.90500999    0.81557013    -0.13000000
opls_145-142    C    0.08752985    0.88472010    0.81703212    -0.17560000
opls_145-143    C    0.11820005    0.88774990    0.61755070    0.19630000
opls_145-144    C    0.12630998    0.91197992    0.41739920    -0.19120000
opls_145-145    C    0.10462999    0.93203993    0.41608024    -0.12990000
opls_567-146    C    0.18875997    0.84779003    0.47098941    -0.02870000
opls_567-147    C    0.21267990    0.80319996    0.55979172    -0.04550000
opls_716-148    C    0.23388994    0.82243002    0.37007011    -0.14040000
opls_716-149    C    0.22052002    0.84752006    0.32404938    -0.12870000
opls_543-150    C    0.22177990    0.77552005    0.61815191    0.15450000
opls_234-151    C    0.22137990    0.73105004    0.82752027    0.42410000
opls_700-152    C    0.24983001    0.76379005    0.44038043    -0.20620000
opls_142-153    C    0.16761996    0.86970997    0.47074045    0.06570000
opls_245-154    C    0.17621005    0.76094003    0.09731996    -0.09230000
opls_137-155    C    0.15021999    0.74477004    0.00979953    0.00760000
opls_136-156    C    0.12170000    0.76260996    0.09031992    -0.16020000
opls_136-157    C    0.09546989    0.75017006    0.97498206    -0.14430000
opls_136-158    C    0.06819010    0.76904997    0.05017891    -0.12430000
opls_135-159    C    0.04191986    0.75584005    0.94101211    -0.38500000
opls_136-160    C    0.14559989    0.71773008    0.20964115    -0.13330000
opls_135-161    C    0.13262009    0.69503010    0.03229873    -0.38500000
opls_700-162    C    0.44881004    0.45021996    0.39972032    -0.07130000
opls_716-163    C    0.48565990    0.41332998    0.47827020    -0.18950000
opls_507-164    C    0.47719992    0.44170997    0.45482018    0.21520000
opls_543-165    C    0.44098004    0.47750004    0.36426984    0.17430000
opls_716-166    C    0.41340991    0.48595992    0.26712998    -0.17400000
opls_700-167    C    0.42606992    0.42900993    0.38606983    0.06660000
opls_145-168    C    0.43387997    0.40500999    0.18442987    -0.13000000
opls_145-169    C    0.41246987    0.38472010    0.18297053    -0.17560000
opls_145-170    C    0.38179995    0.38774990    0.38244930    0.19630000
opls_145-171    C    0.37369002    0.41197992    0.58260080    -0.19120000
opls_145-172    C    0.39537001    0.43203993    0.58391976    -0.12990000
opls_567-173    C    0.31124003    0.34779003    0.52901059    -0.02870000
opls_567-174    C    0.28732004    0.30319996    0.44021093    -0.04550000
opls_716-175    C    0.26611006    0.32243002    0.62992989    -0.14040000
opls_716-176    C    0.27947998    0.34752006    0.67595062    -0.12870000
opls_543-177    C    0.27822004    0.27552005    0.38185073    0.15460000
opls_234-178    C    0.27862010    0.23105004    0.17247973    0.42410000
opls_700-179    C    0.25016999    0.26379005    0.55961957    -0.20620000
opls_142-180    C    0.33238004    0.36970997    0.52925955    0.06570000
opls_245-181    C    0.32378995    0.26094003    0.90268004    -0.09230000
opls_137-182    C    0.34978001    0.24477004    0.99020047    0.00760000
opls_136-183    C    0.37830000    0.26260996    0.90968008    -0.16020000
opls_136-184    C    0.40453005    0.25017006    0.02502059    -0.14430000
opls_136-185    C    0.43180990    0.26904997    0.94982109    -0.12430000
opls_135-186    C    0.45808008    0.25584005    0.05899054    -0.38480000
opls_136-187    C    0.35439983    0.21773008    0.79036150    -0.13330000
opls_135-188    C    0.36737991    0.19503010    0.96770127    -0.38500000
opls_700-189    C    0.94881004    0.95021996    0.39972032    -0.07140000
opls_716-190    C    0.98565990    0.91332998    0.47827020    -0.18950000
opls_507-191    C    0.97719992    0.94170997    0.45482018    0.21520000
opls_543-192    C    0.94098004    0.97750004    0.36426984    0.17440000
opls_716-193    C    0.91340991    0.98595992    0.26712998    -0.17400000
opls_700-194    C    0.92606992    0.92900993    0.38606983    0.06660000
opls_145-195    C    0.93387997    0.90500999    0.18442987    -0.12990000
opls_145-196    C    0.91246987    0.88472010    0.18297053    -0.17560000
opls_145-197    C    0.88179995    0.88774990    0.38244930    0.19630000
opls_145-198    C    0.87369002    0.91197992    0.58260080    -0.19120000
opls_145-199    C    0.89537001    0.93203993    0.58391976    -0.12990000
opls_567-200    C    0.81124003    0.84779003    0.52901059    -0.02870000
opls_567-201    C    0.78732004    0.80319996    0.44021093    -0.04550000
opls_716-202    C    0.76611006    0.82243002    0.62992989    -0.14040000
opls_716-203    C    0.77947998    0.84752006    0.67595062    -0.12870000
opls_543-204    C    0.77822004    0.77552005    0.38185073    0.15450000
opls_234-205    C    0.77862010    0.73105004    0.17247973    0.42410000
opls_700-206    C    0.75016999    0.76379005    0.55961957    -0.20630000
opls_142-207    C    0.83238004    0.86970997    0.52925955    0.06570000
opls_245-208    C    0.82378995    0.76094003    0.90268004    -0.09230000
opls_137-209    C    0.84978001    0.74477004    0.99020047    0.00760000
opls_136-210    C    0.87830000    0.76260996    0.90968008    -0.16020000
opls_136-211    C    0.90453005    0.75017006    0.02502059    -0.14430000
opls_136-212    C    0.93180990    0.76904997    0.94982109    -0.12430000
opls_135-213    C    0.95808008    0.75584005    0.05899054    -0.38500000
opls_136-214    C    0.85439983    0.71773008    0.79036150    -0.13330000
opls_135-215    C    0.86737991    0.69503010    0.96770127    -0.38500000
opls_750-216    N    0.36128001    0.63335992    0.37373036    -0.29040000
opls_542-217    N    0.29488001    0.74402006    0.15695144    -0.10920000
opls_750-218    N    0.86128001    0.13335992    0.37373036    -0.29040000
opls_542-219    N    0.79488001    0.24402006    0.15695144    -0.10910000
opls_750-220    N    0.63871999    0.63335992    0.62626964    -0.29040000
opls_542-221    N    0.70511993    0.74402006    0.84305120    -0.10920000
opls_750-222    N    0.13871999    0.13335992    0.62626964    -0.29030000
opls_542-223    N    0.20511993    0.24402006    0.84305120    -0.10920000
opls_750-224    N    0.63871999    0.36664008    0.62626964    -0.29040000
opls_542-225    N    0.70511993    0.25597994    0.84305120    -0.10920000
opls_750-226    N    0.13871999    0.86664008    0.62626964    -0.29040000
opls_542-227    N    0.20511993    0.75597994    0.84305120    -0.10910000
opls_750-228    N    0.36128001    0.36664008    0.37373036    -0.29030000
opls_542-229    N    0.29488001    0.25597994    0.15695144    -0.10920000
opls_750-230    N    0.86128001    0.86664008    0.37373036    -0.29040000
opls_542-231    N    0.79488001    0.75597994    0.15695144    -0.10920000
opls_542-232    N    0.49999997    0.54164003    0.50000132    -0.33910000
opls_542-233    N    0.99999997    0.04164003    0.50000132    -0.33910000
opls_542-234    N    0.49999997    0.45835997    0.50000132    -0.33890000
opls_542-235    N    0.99999997    0.95835997    0.50000132    -0.33910000
opls_542-236    N    0.45742007    0.50000000    0.41053953    -0.28110000
opls_542-237    N    0.95742007    0.00000000    0.41053953    -0.28110000
opls_542-238    N    0.54257993    0.50000000    0.58946047    -0.28110000
opls_542-239    N    0.04257993    0.00000000    0.58946047    -0.28110000
opls_633-240    S    0.32386993    0.68285997    0.33170096    0.07900000
opls_633-241    S    0.82386993    0.18285997    0.33170096    0.07900000
opls_633-242    S    0.67613001    0.68285997    0.66830169    0.07900000
opls_633-243    S    0.17613001    0.18285997    0.66830169    0.07900000
opls_633-244    S    0.67613001    0.31714003    0.66830169    0.07900000
opls_633-245    S    0.17613001    0.81714003    0.66830169    0.07900000
opls_633-246    S    0.32386993    0.31714003    0.33170096    0.07900000
opls_633-247    S    0.82386993    0.81714003    0.33170096    0.07910000
opls_236-248    O    0.28855001    0.78918995    0.98501201    -0.50150000
opls_236-249    O    0.78855001    0.28918995    0.98501201    -0.50120000
opls_236-250    O    0.71144993    0.78918995    0.01499064    -0.50150000
opls_236-251    O    0.21144993    0.28918995    0.01499064    -0.50150000
opls_236-252    O    0.71144993    0.21081005    0.01499064    -0.50140000
opls_236-253    O    0.21144993    0.71081005    0.01499064    -0.50140000
opls_236-254    O    0.28855001    0.21081005    0.98501201    -0.50150000
opls_236-255    O    0.78855001    0.71081005    0.98501201    -0.50150000
opls_547-256    H    0.47171007    0.60467007    0.45877972    0.06780000
opls_547-257    H    0.39700993    0.52776009    0.19848028    0.11180000
opls_146-258    H    0.45709996    0.59745001    0.01330088    0.10910000
opls_146-259    H    0.41929989    0.63373992    0.02360098    0.10420000
opls_146-260    H    0.35018989    0.58474996    0.74482015    0.09350000
opls_146-261    H    0.38856994    0.54989007    0.75115012    0.10420000
opls_570-262    H    0.24138982    0.68203001    0.73419163    0.11820000
opls_570-263    H    0.26709996    0.63456006    0.81129012    0.07980000
opls_144-264    H    0.32182004    0.61155002    0.67463960    0.04520000
opls_140-265    H    0.32116991    0.74430005    0.63789930    0.06580000
opls_140-266    H    0.32879991    0.71686004    0.89136025    0.06410000
opls_140-267    H    0.34294985    0.76015998    0.27518149    0.10490000
opls_140-268    H    0.38568991    0.73300998    0.62517050    0.10430000
opls_140-269    H    0.37308988    0.71684000    0.02926088    0.11370000
opls_140-270    H    0.39727997    0.75423004    0.30920971    0.10550000
opls_140-271    H    0.41106993    0.76993003    0.90164976    0.08680000
opls_140-272    H    0.43844000    0.72588993    0.66554193    0.09110000
opls_140-273    H    0.42531980    0.71132995    0.08914132    0.11850000
opls_140-274    H    0.47295000    0.75561998    0.83838980    0.12490000
opls_140-275    H    0.47216001    0.72902997    0.14950115    0.12710000
opls_140-276    H    0.44975992    0.75887005    0.27508085    0.12360000
opls_140-277    H    0.33238005    0.78891998    0.74725944    0.11850000
opls_140-278    H    0.36980988    0.77858994    0.52834052    0.12920000
opls_140-279    H    0.38044992    0.81944010    0.76913094    0.12490000
opls_140-280    H    0.38296996    0.79726001    0.11552061    0.14340000
opls_140-281    H    0.34906986    0.81616998    0.15516104    0.12520000
opls_547-282    H    0.97171007    0.10467007    0.45877972    0.06780000
opls_547-283    H    0.89700993    0.02776009    0.19848028    0.11180000
opls_146-284    H    0.95709996    0.09745001    0.01330088    0.10910000
opls_146-285    H    0.91929989    0.13373992    0.02360098    0.10420000
opls_146-286    H    0.85018989    0.08474996    0.74482015    0.09350000
opls_146-287    H    0.88856994    0.04989007    0.75115012    0.10420000
opls_570-288    H    0.74138982    0.18203001    0.73419163    0.11820000
opls_570-289    H    0.76709996    0.13456006    0.81129012    0.07980000
opls_144-290    H    0.82182004    0.11155002    0.67463960    0.04520000
opls_140-291    H    0.82116991    0.24430005    0.63789930    0.06590000
opls_140-292    H    0.82879991    0.21686004    0.89136025    0.06410000
opls_140-293    H    0.84294985    0.26015998    0.27518149    0.10490000
opls_140-294    H    0.88568991    0.23300998    0.62517050    0.10430000
opls_140-295    H    0.87308988    0.21684000    0.02926088    0.11370000
opls_140-296    H    0.89727997    0.25423004    0.30920971    0.10540000
opls_140-297    H    0.91106993    0.26993003    0.90164976    0.08680000
opls_140-298    H    0.93844000    0.22588993    0.66554193    0.09110000
opls_140-299    H    0.92531980    0.21132995    0.08914132    0.11850000
opls_140-300    H    0.97295000    0.25561998    0.83838980    0.12490000
opls_140-301    H    0.97216001    0.22902997    0.14950115    0.12710000
opls_140-302    H    0.94975992    0.25887005    0.27508085    0.12360000
opls_140-303    H    0.83238005    0.28891998    0.74725944    0.11850000
opls_140-304    H    0.86980988    0.27858994    0.52834052    0.12920000
opls_140-305    H    0.88044992    0.31944010    0.76913094    0.12480000
opls_140-306    H    0.88296996    0.29726001    0.11552061    0.14340000
opls_140-307    H    0.84906986    0.31616998    0.15516104    0.12520000
opls_547-308    H    0.52828993    0.60467007    0.54122028    0.06780000
opls_547-309    H    0.60299007    0.52776009    0.80151972    0.11180000
opls_146-310    H    0.54289998    0.59745001    0.98670177    0.10910000
opls_146-311    H    0.58069982    0.63373992    0.97640166    0.10420000
opls_146-312    H    0.64980989    0.58474996    0.25517985    0.09350000
opls_146-313    H    0.61143006    0.54989007    0.24884988    0.10420000
opls_570-314    H    0.75860990    0.68203001    0.26581102    0.11760000
opls_570-315    H    0.73290004    0.63456006    0.18870988    0.07980000
opls_144-316    H    0.67817996    0.61155002    0.32536040    0.04520000
opls_140-317    H    0.67882987    0.74430005    0.36210070    0.06580000
opls_140-318    H    0.67120009    0.71686004    0.10863975    0.06410000
opls_140-319    H    0.65705015    0.76015998    0.72481851    0.10490000
opls_140-320    H    0.61431009    0.73300998    0.37482950    0.10430000
opls_140-321    H    0.62691012    0.71684000    0.97073912    0.11370000
opls_140-322    H    0.60272003    0.75423004    0.69079029    0.10540000
opls_140-323    H    0.58892985    0.76993003    0.09835024    0.08680000
opls_140-324    H    0.56155994    0.72588993    0.33446072    0.09110000
opls_140-325    H    0.57467998    0.71132995    0.91085868    0.11850000
opls_140-326    H    0.52705000    0.75561998    0.16161020    0.12490000
opls_140-327    H    0.52783993    0.72902997    0.85050150    0.12710000
opls_140-328    H    0.55024002    0.75887005    0.72492180    0.12360000
opls_140-329    H    0.66761995    0.78891998    0.25274056    0.14470000
opls_140-330    H    0.63018990    0.77858994    0.47165948    0.12920000
opls_140-331    H    0.61955008    0.81944010    0.23086906    0.12490000
opls_140-332    H    0.61703004    0.79726001    0.88447939    0.14350000
opls_140-333    H    0.65093014    0.81616998    0.84483896    0.12520000
opls_547-334    H    0.02828993    0.10467007    0.54122028    0.06780000
opls_547-335    H    0.10299007    0.02776009    0.80151972    0.11180000
opls_146-336    H    0.04289998    0.09745001    0.98670177    0.10910000
opls_146-337    H    0.08069982    0.13373992    0.97640166    0.10420000
opls_146-338    H    0.14980989    0.08474996    0.25517985    0.09350000
opls_146-339    H    0.11143006    0.04989007    0.24884988    0.10420000
opls_570-340    H    0.25860990    0.18203001    0.26581102    0.11770000
opls_570-341    H    0.23290004    0.13456006    0.18870988    0.07980000
opls_144-342    H    0.17817996    0.11155002    0.32536040    0.04520000
opls_140-343    H    0.17882987    0.24430005    0.36210070    0.06580000
opls_140-344    H    0.17120009    0.21686004    0.10863975    0.06410000
opls_140-345    H    0.15705015    0.26015998    0.72481851    0.10490000
opls_140-346    H    0.11431009    0.23300998    0.37482950    0.10440000
opls_140-347    H    0.12691012    0.21684000    0.97073912    0.11370000
opls_140-348    H    0.10272003    0.25423004    0.69079029    0.10540000
opls_140-349    H    0.08892985    0.26993003    0.09835024    0.08680000
opls_140-350    H    0.06155994    0.22588993    0.33446072    0.09110000
opls_140-351    H    0.07467998    0.21132995    0.91085868    0.11850000
opls_140-352    H    0.02705000    0.25561998    0.16161020    0.12490000
opls_140-353    H    0.02783993    0.22902997    0.85050150    0.12710000
opls_140-354    H    0.05024002    0.25887005    0.72492180    0.12360000
opls_140-355    H    0.16761995    0.28891998    0.25274056    0.14460000
opls_140-356    H    0.13018990    0.27858994    0.47165948    0.12920000
opls_140-357    H    0.11955008    0.31944010    0.23086906    0.12480000
opls_140-358    H    0.11703004    0.29726001    0.88447939    0.14340000
opls_140-359    H    0.15093014    0.31616998    0.84483896    0.12520000
opls_547-360    H    0.52828993    0.39532993    0.54122028    0.06780000
opls_547-361    H    0.60299007    0.47223991    0.80151972    0.11180000
opls_146-362    H    0.54289998    0.40254999    0.98670177    0.10910000
opls_146-363    H    0.58069982    0.36626008    0.97640166    0.10420000
opls_146-364    H    0.64980989    0.41525004    0.25517985    0.09350000
opls_146-365    H    0.61143006    0.45010993    0.24884988    0.10420000
opls_570-366    H    0.75860990    0.31796999    0.26581102    0.11770000
opls_570-367    H    0.73290004    0.36543994    0.18870988    0.07980000
opls_144-368    H    0.67817996    0.38844998    0.32536040    0.04520000
opls_140-369    H    0.67882987    0.25569995    0.36210070    0.06580000
opls_140-370    H    0.67120009    0.28313996    0.10863975    0.06410000
opls_140-371    H    0.65705015    0.23984002    0.72481851    0.10490000
opls_140-372    H    0.61431009    0.26699002    0.37482950    0.10430000
opls_140-373    H    0.62691012    0.28316000    0.97073912    0.11370000
opls_140-374    H    0.60272003    0.24576996    0.69079029    0.10540000
opls_140-375    H    0.58892985    0.23006997    0.09835024    0.08680000
opls_140-376    H    0.56155994    0.27411007    0.33446072    0.09110000
opls_140-377    H    0.57467998    0.28867005    0.91085868    0.11850000
opls_140-378    H    0.52705000    0.24438002    0.16161020    0.12490000
opls_140-379    H    0.52783993    0.27097003    0.85050150    0.12710000
opls_140-380    H    0.55024002    0.24112995    0.72492180    0.12360000
opls_140-381    H    0.66761995    0.21108002    0.25274056    0.14460000
opls_140-382    H    0.63018990    0.22141006    0.47165948    0.12920000
opls_140-383    H    0.61955008    0.18055990    0.23086906    0.12480000
opls_140-384    H    0.61703004    0.20273999    0.88447939    0.14340000
opls_140-385    H    0.65093014    0.18383002    0.84483896    0.12520000
opls_547-386    H    0.02828993    0.89532993    0.54122028    0.06780000
opls_547-387    H    0.10299007    0.97223991    0.80151972    0.11180000
opls_146-388    H    0.04289998    0.90254999    0.98670177    0.10910000
opls_146-389    H    0.08069982    0.86626008    0.97640166    0.10420000
opls_146-390    H    0.14980989    0.91525004    0.25517985    0.09350000
opls_146-391    H    0.11143006    0.95010993    0.24884988    0.10430000
opls_570-392    H    0.25860990    0.81796999    0.26581102    0.11760000
opls_570-393    H    0.23290004    0.86543994    0.18870988    0.07980000
opls_144-394    H    0.17817996    0.88844998    0.32536040    0.04520000
opls_140-395    H    0.17882987    0.75569995    0.36210070    0.06580000
opls_140-396    H    0.17120009    0.78313996    0.10863975    0.06410000
opls_140-397    H    0.15705015    0.73984002    0.72481851    0.10490000
opls_140-398    H    0.11431009    0.76699002    0.37482950    0.10430000
opls_140-399    H    0.12691012    0.78316000    0.97073912    0.11370000
opls_140-400    H    0.10272003    0.74576996    0.69079029    0.10540000
opls_140-401    H    0.08892985    0.73006997    0.09835024    0.08680000
opls_140-402    H    0.06155994    0.77411007    0.33446072    0.09110000
opls_140-403    H    0.07467998    0.78867005    0.91085868    0.11850000
opls_140-404    H    0.02705000    0.74438002    0.16161020    0.12490000
opls_140-405    H    0.02783993    0.77097003    0.85050150    0.12710000
opls_140-406    H    0.05024002    0.74112995    0.72492180    0.12370000
opls_140-407    H    0.16761995    0.71108002    0.25274056    0.14460000
opls_140-408    H    0.13018990    0.72141006    0.47165948    0.12920000
opls_140-409    H    0.11955008    0.68055990    0.23086906    0.12480000
opls_140-410    H    0.11703004    0.70273999    0.88447939    0.14340000
opls_140-411    H    0.15093014    0.68383002    0.84483896    0.12520000
opls_547-412    H    0.47171007    0.39532993    0.45877972    0.06780000
opls_547-413    H    0.39700993    0.47223991    0.19848028    0.11180000
opls_146-414    H    0.45709996    0.40254999    0.01330088    0.10910000
opls_146-415    H    0.41929989    0.36626008    0.02360098    0.10420000
opls_146-416    H    0.35018989    0.41525004    0.74482015    0.09350000
opls_146-417    H    0.38856994    0.45010993    0.75115012    0.10420000
opls_570-418    H    0.24138982    0.31796999    0.73419163    0.11820000
opls_570-419    H    0.26709996    0.36543994    0.81129012    0.07980000
opls_144-420    H    0.32182004    0.38844998    0.67463960    0.04520000
opls_140-421    H    0.32116991    0.25569995    0.63789930    0.06580000
opls_140-422    H    0.32879991    0.28313996    0.89136025    0.06410000
opls_140-423    H    0.34294985    0.23984002    0.27518149    0.10490000
opls_140-424    H    0.38568991    0.26699002    0.62517050    0.10430000
opls_140-425    H    0.37308988    0.28316000    0.02926088    0.11370000
opls_140-426    H    0.39727997    0.24576996    0.30920971    0.10540000
opls_140-427    H    0.41106993    0.23006997    0.90164976    0.08680000
opls_140-428    H    0.43844000    0.27411007    0.66554193    0.09120000
opls_140-429    H    0.42531980    0.28867005    0.08914132    0.11850000
opls_140-430    H    0.47295000    0.24438002    0.83838980    0.12490000
opls_140-431    H    0.47216001    0.27097003    0.14950115    0.12710000
opls_140-432    H    0.44975992    0.24112995    0.27508085    0.12360000
opls_140-433    H    0.33238005    0.21108002    0.74725944    0.11850000
opls_140-434    H    0.36980988    0.22141006    0.52834052    0.12920000
opls_140-435    H    0.38044992    0.18055990    0.76913094    0.12480000
opls_140-436    H    0.38296996    0.20273999    0.11552061    0.14340000
opls_140-437    H    0.34906986    0.18383002    0.15516104    0.12520000
opls_547-438    H    0.97171007    0.89532993    0.45877972    0.06790000
opls_547-439    H    0.89700993    0.97223991    0.19848028    0.11190000
opls_146-440    H    0.95709996    0.90254999    0.01330088    0.10910000
opls_146-441    H    0.91929989    0.86626008    0.02360098    0.10420000
opls_146-442    H    0.85018989    0.91525004    0.74482015    0.09350000
opls_146-443    H    0.88856994    0.95010993    0.75115012    0.10420000
opls_570-444    H    0.74138982    0.81796999    0.73419163    0.11820000
opls_570-445    H    0.76709996    0.86543994    0.81129012    0.07980000
opls_144-446    H    0.82182004    0.88844998    0.67463960    0.04520000
opls_140-447    H    0.82116991    0.75569995    0.63789930    0.06580000
opls_140-448    H    0.82879991    0.78313996    0.89136025    0.06410000
opls_140-449    H    0.84294985    0.73984002    0.27518149    0.10490000
opls_140-450    H    0.88568991    0.76699002    0.62517050    0.10430000
opls_140-451    H    0.87308988    0.78316000    0.02926088    0.11370000
opls_140-452    H    0.89727997    0.74576996    0.30920971    0.10540000
opls_140-453    H    0.91106993    0.73006997    0.90164976    0.08690000
opls_140-454    H    0.93844000    0.77411007    0.66554193    0.09110000
opls_140-455    H    0.92531980    0.78867005    0.08914132    0.11850000
opls_140-456    H    0.97295000    0.74438002    0.83838980    0.12490000
opls_140-457    H    0.97216001    0.77097003    0.14950115    0.12710000
opls_140-458    H    0.94975992    0.74112995    0.27508085    0.12360000
opls_140-459    H    0.83238005    0.71108002    0.74725944    0.11850000
opls_140-460    H    0.86980988    0.72141006    0.52834052    0.12920000
opls_140-461    H    0.88044992    0.68055990    0.76913094    0.12490000
opls_140-462    H    0.88296996    0.70273999    0.11552061    0.14340000
opls_140-463    H    0.84906986    0.68383002    0.15516104    0.12520000
opls_545-464    H    0.97681995    0.00000000    0.47094968    0.29580000
opls_545-465    H    0.47681995    0.50000000    0.47094968    0.29580000
opls_545-466    H    0.02318003    0.00000000    0.52906091    0.29580000
opls_545-467    H    0.52318003    0.50000000    0.52906091    0.29580000
