#======================================================================
# Crystal Data Generated By AuToFF
#----------------------------------------------------------------------

data_AuToFF_phase_1

_cell_length_a                         29.2140
_cell_length_b                         29.2140
_cell_length_c                         3.6000
_cell_angle_alpha                      90.00
_cell_angle_beta                       90.00
_cell_angle_gamma                      120.00
_symmetry_space_group_name_H-M_alt     'P 1'
_symmetry_space_group_IT_number        1

loop_
_space_group_symop_operation_xyz
   'x, y, z'

loop_
   _atom_site_label
   _atom_site_type_symbol
   _atom_site_fract_x
   _atom_site_fract_y
   _atom_site_fract_z
   _atom_site_charge
opls_238-0    N    0.42351977    0.61467972    0.50000000    -0.19720000
opls_238-1    N    0.38531994    0.80884005    0.50000000    -0.19700000
opls_238-2    N    0.19115975    0.57647983    0.50000000    -0.19720000
opls_238-3    N    0.57648003    0.38531988    0.50000000    -0.19720000
opls_238-4    N    0.61468006    0.19115995    0.50000000    -0.19700000
opls_238-5    N    0.80884006    0.42351978    0.50000000    -0.19720000
opls_265-6    N    0.35292999    0.50279979    0.50000000    -0.28900000
opls_265-7    N    0.49721004    0.85013994    0.50000000    -0.28900000
opls_265-8    N    0.14986985    0.64706975    0.50000000    -0.28900000
opls_265-9    N    0.64707016    0.49721009    0.50000000    -0.28900000
opls_265-10    N    0.50280004    0.14986994    0.50000000    -0.28900000
opls_265-11    N    0.85013988    0.35292985    0.50000000    -0.28900000
opls_142-12    C    0.37180000    0.59844973    0.50000000    0.11970000
opls_916-13    C    0.44425993    0.58184977    0.50000000    0.16110000
opls_266-14    C    0.41231994    0.52737008    0.50000000    0.15240000
opls_145-15    C    0.43457976    0.49613973    0.50000000    -0.18180000
opls_700-16    C    0.48903983    0.51737999    0.50000000    0.10550000
opls_145-17    C    0.52049008    0.57226996    0.50000000    -0.11600000
opls_145-18    C    0.49853999    0.60409991    0.50000000    -0.15620000
opls_235-19    C    0.31805008    0.44346992    0.50000000    0.51760000
opls_135-20    C    0.34306984    0.40797990    0.50000000    -0.44300000
opls_142-21    C    0.40155008    0.77335003    0.50000000    0.11970000
opls_916-22    C    0.41815009    0.86239999    0.50000000    0.16110000
opls_266-23    C    0.47262993    0.88494973    0.50000000    0.16360000
opls_145-24    C    0.50385994    0.93842981    0.50000000    -0.18350000
opls_700-25    C    0.48262012    0.97167004    0.50000000    0.10550000
opls_145-26    C    0.42772979    0.94821991    0.50000000    -0.11600000
opls_145-27    C    0.39589999    0.89443982    0.50000000    -0.15690000
opls_235-28    C    0.55652999    0.87457979    0.50000000    0.51760000
opls_135-29    C    0.59201986    0.93508990    0.50000000    -0.44300000
opls_142-30    C    0.22665007    0.62819984    0.50000000    0.11970000
opls_916-31    C    0.13759991    0.55573996    0.50000000    0.16110000
opls_266-32    C    0.11504993    0.58767980    0.50000000    0.15240000
opls_145-33    C    0.06157003    0.56543006    0.50000000    -0.18210000
opls_700-34    C    0.02832993    0.51095985    0.50000000    0.10550000
opls_145-35    C    0.05177993    0.47950974    0.50000000    -0.11450000
opls_145-36    C    0.10555981    0.50145988    0.50000000    -0.15690000
opls_235-37    C    0.12542007    0.68194989    0.50000000    0.51760000
opls_135-38    C    0.06490976    0.65692980    0.50000000    -0.44300000
opls_142-39    C    0.62819980    0.40154988    0.50000000    0.11970000
opls_916-40    C    0.55573987    0.41814983    0.50000000    0.16110000
opls_266-41    C    0.58768006    0.47262992    0.50000000    0.16360000
opls_145-42    C    0.56542997    0.50385987    0.50000000    -0.18180000
opls_700-43    C    0.51096017    0.48262001    0.50000000    0.10550000
opls_145-44    C    0.47950992    0.42773004    0.50000000    -0.11600000
opls_145-45    C    0.50146001    0.39590009    0.50000000    -0.15620000
opls_235-46    C    0.68194992    0.55653008    0.50000000    0.51760000
opls_135-47    C    0.65693016    0.59202010    0.50000000    -0.44300000
opls_142-48    C    0.59844992    0.22664997    0.50000000    0.11970000
opls_916-49    C    0.58184991    0.13760001    0.50000000    0.16110000
opls_266-50    C    0.52736988    0.11504988    0.50000000    0.16360000
opls_145-51    C    0.49614006    0.06157019    0.50000000    -0.18350000
opls_700-52    C    0.51737988    0.02832996    0.50000000    0.10550000
opls_145-53    C    0.57227021    0.05178009    0.50000000    -0.11600000
opls_145-54    C    0.60409981    0.10555979    0.50000000    -0.15690000
opls_235-55    C    0.44346982    0.12541981    0.50000000    0.51760000
opls_135-56    C    0.40798014    0.06491010    0.50000000    -0.44300000
opls_142-57    C    0.77334973    0.37179976    0.50000000    0.11970000
opls_916-58    C    0.86240009    0.44426004    0.50000000    0.16110000
opls_266-59    C    0.88494987    0.41231981    0.50000000    0.15240000
opls_145-60    C    0.93842978    0.43457983    0.50000000    -0.18180000
opls_700-61    C    0.97166987    0.48903975    0.50000000    0.10240000
opls_145-62    C    0.94821988    0.52048986    0.50000000    -0.11450000
opls_145-63    C    0.89443999    0.49853973    0.50000000    -0.15690000
opls_235-64    C    0.87457993    0.31805011    0.50000000    0.51760000
opls_135-65    C    0.93509005    0.34306980    0.50000000    -0.44300000
opls_280-66    C    0.61178003    0.31202997    0.50000000    0.30740000
opls_145-67    C    0.64488976    0.36772981    0.50000000    -0.08770000
opls_280-68    C    0.68796997    0.29974976    0.50000000    0.30760000
opls_145-69    C    0.63227999    0.27716010    0.50000000    -0.08770000
opls_280-70    C    0.70024980    0.38821987    0.50000000    0.30740000
opls_145-71    C    0.72284018    0.35511008    0.50000000    -0.08770000
opls_280-72    C    0.38821997    0.68797003    0.50000000    0.30740000
opls_145-73    C    0.35511005    0.63228007    0.50000000    -0.08770000
opls_280-74    C    0.31202983    0.70024984    0.50000000    0.30740000
opls_145-75    C    0.36772994    0.72283990    0.50000000    -0.08770000
opls_280-76    C    0.29975000    0.61177973    0.50000000    0.30750000
opls_145-77    C    0.27715982    0.64488992    0.50000000    -0.08770000
opls_140-78    H    0.36857013    0.41656999    0.24103889    0.09370000
opls_140-79    H    0.36857013    0.41656999    0.75896111    0.09370000
MOF2_H_b-80    H    0.33488979    0.52838984    0.50000000    0.24540000
opls_140-81    H    0.31043996    0.36474998    0.50000000    0.09430000
opls_140-82    H    0.58342987    0.95199974    0.24103889    0.09370000
opls_140-83    H    0.58342987    0.95199974    0.75896111    0.09370000
MOF2_H_b-84    H    0.47160991    0.80649974    0.50000000    0.24540000
opls_140-85    H    0.63524995    0.94568987    0.50000000    0.09430000
opls_140-86    H    0.04799980    0.63142987    0.24103889    0.09370000
opls_140-87    H    0.04799980    0.63142987    0.75896111    0.09370000
MOF2_H_b-88    H    0.19350010    0.66511002    0.50000000    0.24540000
opls_140-89    H    0.05430990    0.68955975    0.50000000    0.09430000
opls_140-90    H    0.63142987    0.58343001    0.24103889    0.09370000
opls_140-91    H    0.63142987    0.58343001    0.75896111    0.09370000
MOF2_H_b-92    H    0.66511001    0.47160976    0.50000000    0.24540000
opls_140-93    H    0.68956004    0.63525002    0.50000000    0.09430000
opls_140-94    H    0.41656993    0.04799987    0.24103889    0.09370000
opls_140-95    H    0.41656993    0.04799987    0.75896111    0.09370000
MOF2_H_b-96    H    0.52838990    0.19349986    0.50000000    0.24540000
opls_140-97    H    0.36475005    0.05431013    0.50000000    0.09430000
opls_140-98    H    0.95200020    0.36857013    0.24103889    0.09370000
opls_140-99    H    0.95200020    0.36857013    0.75896111    0.09380000
MOF2_H_b-100    H    0.80649990    0.33488998    0.50000000    0.24540000
opls_140-101    H    0.94568991    0.31043985    0.50000000    0.09430000
opls_144-102    H    0.34157019    0.55440005    0.50000000    -0.19570000
opls_910-103    H    0.45017989    0.65818000    0.50000000    0.27130000
opls_146-104    H    0.52498985    0.64891994    0.50000000    0.04640000
opls_146-105    H    0.40838994    0.45129006    0.50000000    0.04640000
opls_146-106    H    0.56538976    0.59144975    0.50000000    0.04640000
opls_144-107    H    0.44560001    0.78716976    0.50000000    -0.19570000
opls_910-108    H    0.34181990    0.79198990    0.50000000    0.27130000
opls_146-109    H    0.35108007    0.87606991    0.50000000    0.04640000
opls_146-110    H    0.54870972    0.95709972    0.50000000    0.04640000
opls_146-111    H    0.40855006    0.97393999    0.50000000    0.04640000
opls_144-112    H    0.21282995    0.65842980    0.50000000    -0.19570000
opls_910-113    H    0.20800979    0.54981982    0.50000000    0.26900000
opls_146-114    H    0.12392988    0.47500975    0.50000000    0.04640000
opls_146-115    H    0.04291007    0.59160983    0.50000000    0.04640000
opls_146-116    H    0.02605998    0.43460986    0.50000000    0.04640000
opls_144-117    H    0.65842981    0.44559995    0.50000000    -0.19570000
opls_910-118    H    0.54982011    0.34182000    0.50000000    0.27130000
opls_146-119    H    0.47501015    0.35108006    0.50000000    0.04640000
opls_146-120    H    0.59161006    0.54870994    0.50000000    0.04640000
opls_146-121    H    0.43461004    0.40854986    0.50000000    0.04640000
opls_144-122    H    0.55439979    0.21282985    0.50000000    -0.19570000
opls_910-123    H    0.65818010    0.20801010    0.50000000    0.27130000
opls_146-124    H    0.64891993    0.12393009    0.50000000    0.04640000
opls_146-125    H    0.45129009    0.04291016    0.50000000    0.04640000
opls_146-126    H    0.59144994    0.02606001    0.50000000    0.04640000
opls_144-127    H    0.78716986    0.34156981    0.50000000    -0.19570000
opls_910-128    H    0.79199001    0.45017978    0.50000000    0.26900000
opls_146-129    H    0.87606992    0.52498985    0.50000000    0.04640000
opls_146-130    H    0.95710000    0.40838978    0.50000000    0.04580000
opls_146-131    H    0.97393982    0.56538974    0.50000000    0.04640000
opls_236-132    O    0.25866000    0.41898975    0.50000000    -0.30680000
opls_236-133    O    0.58100978    0.83965973    0.50000000    -0.30680000
opls_236-134    O    0.16033994    0.74133985    0.50000000    -0.30670000
opls_236-135    O    0.74133980    0.58100985    0.50000000    -0.30680000
opls_236-136    O    0.41899002    0.16033987    0.50000000    -0.30680000
opls_236-137    O    0.83966006    0.25866015    0.50000000    -0.30670000
opls_281-138    O    0.56641002    0.29364978    0.50000000    -0.33170000
opls_281-139    O    0.70634993    0.27276011    0.50000000    -0.33170000
opls_281-140    O    0.72724004    0.43359010    0.50000000    -0.33170000
opls_281-141    O    0.43358978    0.70634982    0.50000000    -0.33170000
opls_281-142    O    0.29365007    0.72723989    0.50000000    -0.33170000
opls_281-143    O    0.27275996    0.56640990    0.50000000    -0.33170000
