#======================================================================
# Crystal Data Generated By AuToFF
#----------------------------------------------------------------------

data_AuToFF_phase_1

_cell_length_a                         51.3700
_cell_length_b                         51.4500
_cell_length_c                         8.0500
_cell_angle_alpha                      89.88
_cell_angle_beta                       90.02
_cell_angle_gamma                      120.02
_symmetry_space_group_name_H-M_alt     'P 1'
_symmetry_space_group_IT_number        1

loop_
_space_group_symop_operation_xyz
   'x, y, z'

loop_
   _atom_site_label
   _atom_site_type_symbol
   _atom_site_fract_x
   _atom_site_fract_y
   _atom_site_fract_z
   _atom_site_charge
opls_145-0    C    0.25455001    0.53929992    0.91015009    -0.11500000
opls_145-1    C    0.27002005    0.54996011    0.75944040    -0.11500000
opls_145-2    C    0.29060986    0.58049992    0.73712978    -0.11500000
opls_700-3    C    0.29611008    0.60082013    0.86627048    0.61900000
opls_145-4    C    0.28045004    0.59042998    0.01642985    -0.11500000
opls_145-5    C    0.25994989    0.55992999    0.03908954    -0.11500000
opls_700-6    C    0.02169002    0.03404998    0.90423951    0.61900000
opls_700-7    C    0.31836004    0.63299997    0.84618968    0.61900000
opls_145-8    C    0.14049007    0.31782011    0.15311964    -0.11500000
opls_145-9    C    0.15669007    0.34921001    0.13924010    -0.11500000
opls_700-10    C    0.14324992    0.36495000    0.07283993    0.61900000
opls_624-11    C    0.11292000    0.34816995    0.02285968    0.03800000
opls_624-12    C    0.09679995    0.31733010    0.03989948    0.03800000
opls_700-13    C    0.11026998    0.30122009    0.10260025    0.61900000
opls_700-14    C    0.09558993    0.26826002    0.10460026    0.61900000
opls_145-15    C    0.09189997    0.25264009    0.95597008    -0.11500000
opls_145-16    C    0.08008997    0.22157995    0.95810052    -0.11500000
opls_700-17    C    0.07239010    0.20578003    0.10963009    0.61900000
opls_145-18    C    0.07652007    0.22159006    0.25835965    -0.11500000
opls_145-19    C    0.08829008    0.25265008    0.25596958    -0.11500000
opls_700-20    C    0.16120005    0.39786007    0.06396041    0.61900000
opls_142-21    C    0.06097996    0.17314999    0.11544004    -0.11500000
opls_145-22    C    0.17853989    0.41193996    0.92272030    -0.11500000
opls_145-23    C    0.19659999    0.44318997    0.91733023    -0.11500000
opls_700-24    C    0.19774992    0.46069998    0.05422995    0.61900000
opls_145-25    C    0.18051003    0.44639993    0.19590980    -0.11500000
opls_145-26    C    0.16248002    0.41516997    0.20110982    -0.11500000
opls_558-27    C    0.06774002    0.33229990    0.94047936    0.27500000
opls_142-28    C    0.21703009    0.49369016    0.05327964    -0.11500000
opls_142-29    C    0.04128998    0.27764006    0.00308945    -0.11500000
opls_142-30    C    0.10280989    0.38878996    0.91692029    -0.11500000
opls_145-31    C    0.04726993    0.12664003    0.96511047    -0.11500000
opls_145-32    C    0.03681007    0.10674008    0.10144000    -0.11500000
opls_145-33    C    0.02858002    0.07666000    0.08003995    -0.11500000
opls_700-34    C    0.03117006    0.06607001    0.92448056    0.61900000
opls_145-35    C    0.03984991    0.08536988    0.78715972    -0.11500000
opls_145-36    C    0.04808986    0.11547991    0.80776971    -0.11500000
opls_143-37    C    0.07707005    0.39146007    0.84028035    -0.23000000
opls_143-38    C    0.02997010    0.27119012    0.18190977    -0.23000000
opls_700-39    C    0.04222007    0.02337006    0.88853016    0.61900000
opls_700-40    C    0.34977000    0.64386011    0.84745055    0.61900000
opls_145-41    C    0.53583991    0.28800995    0.21047009    -0.11500000
opls_145-42    C    0.54792005    0.27483995    0.10725989    -0.11500000
opls_145-43    C    0.57880001    0.28521012    0.10723008    -0.11500000
opls_700-44    C    0.59825006    0.30933014    0.20924027    0.61900000
opls_145-45    C    0.58624009    0.32324005    0.30844052    -0.11500000
opls_145-46    C    0.55536004    0.31277992    0.30891008    -0.11500000
opls_700-47    C    0.02312003    0.00977992    0.42543957    0.61900000
opls_700-48    C    0.63084999    0.31956000    0.21482041    0.61900000
opls_145-49    C    0.31575001    0.16326002    0.34001948    -0.11500000
opls_145-50    C    0.34588012    0.18328008    0.29946037    -0.11500000
opls_700-51    C    0.35900001    0.21421994    0.33142939    0.61900000
opls_624-52    C    0.34029006    0.22427012    0.40001963    0.03800000
opls_624-53    C    0.31151008    0.20428999    0.45407939    0.03800000
opls_700-54    C    0.29795994    0.17328004    0.41945943    0.61900000
opls_700-55    C    0.26579990    0.15149991    0.44477005    0.61900000
opls_145-56    C    0.24372000    0.15576994    0.36736986    -0.11500000
opls_145-57    C    0.21328007    0.13463998    0.38798978    -0.11500000
opls_700-58    C    0.20456007    0.10856001    0.48272045    0.61900000
opls_145-59    C    0.22671012    0.10406010    0.55679020    -0.11500000
opls_145-60    C    0.25709998    0.12541003    0.53845972    -0.11500000
opls_700-61    C    0.39211992    0.23281003    0.32460950    0.61900000
opls_142-62    C    0.17270006    0.08540003    0.50127951    -0.11500000
opls_145-63    C    0.40793993    0.23355002    0.18089983    -0.11500000
opls_145-64    C    0.43938012    0.24889013    0.18082033    -0.11500000
opls_700-65    C    0.45544991    0.26364000    0.32492006    0.61900000
opls_145-66    C    0.43957005    0.26320999    0.46758004    -0.11500000
opls_145-67    C    0.40820003    0.24766993    0.46806949    -0.11500000
opls_558-68    C    0.32205009    0.24896001    0.51789942    0.27500000
opls_142-69    C    0.48853987    0.27861995    0.33181946    -0.11500000
opls_142-70    C    0.27400996    0.20947001    0.64345998    -0.11500000
opls_142-71    C    0.37104993    0.28164003    0.37557982    -0.11500000
opls_145-72    C    0.11967001    0.07040997    0.46862974    -0.11500000
opls_145-73    C    0.10029002    0.08153994    0.43961973    -0.11500000
opls_145-74    C    0.06937002    0.06212000    0.42169049    -0.11500000
opls_700-75    C    0.05660007    0.03076000    0.43993029    0.61900000
opls_145-76    C    0.07653000    0.01984009    0.47021980    -0.11500000
opls_145-77    C    0.10751000    0.03921996    0.48226952    -0.11500000
opls_143-78    C    0.35930004    0.29739010    0.26274972    -0.23000000
opls_143-79    C    0.28314996    0.21986990    0.82247037    -0.23000000
opls_145-80    C    0.00257007    0.02020007    0.43904954    -0.11500000
opls_145-81    C    0.64061995    0.29855006    0.22218937    -0.11500000
opls_145-82    C    0.99070993    0.01384992    0.90551032    -0.11500000
opls_145-83    C    0.69936989    0.24254997    0.28172989    -0.11500000
opls_145-84    C    0.68858014    0.24650011    0.12930964    -0.11500000
opls_145-85    C    0.67871002    0.26725009    0.11359034    -0.11500000
opls_700-86    C    0.68000001    0.28470013    0.25002050    0.61900000
opls_145-87    C    0.69057993    0.28076006    0.40309044    -0.11500000
opls_145-88    C    0.70033986    0.25995991    0.41910042    -0.11500000
opls_700-89    C    0.97172009    0.00159006    0.40650039    0.61900000
opls_700-90    C    0.67129001    0.30785996    0.23241052    0.61900000
opls_145-91    C    0.82028998    0.14064005    0.39295998    -0.11500000
opls_145-92    C    0.80296993    0.15467997    0.38003945    -0.11500000
opls_700-93    C    0.77167991    0.13843990    0.40484945    0.61900000
opls_624-94    C    0.75829007    0.10742000    0.43819985    0.03800000
opls_624-95    C    0.77534005    0.09355003    0.45161976    0.03800000
opls_700-96    C    0.80689006    0.10991994    0.43161971    0.61900000
opls_700-97    C    0.82658003    0.09709004    0.45383964    0.61900000
opls_145-98    C    0.84059993    0.09279992    0.31580948    -0.11500000
opls_145-99    C    0.85983006    0.08118998    0.33653003    -0.11500000
opls_700-100    C    0.86550003    0.07396006    0.49613043    0.61900000
opls_145-101    C    0.85170001    0.07868003    0.63419040    -0.11500000
opls_145-102    C    0.83250995    0.09036996    0.61327978    -0.11500000
opls_700-103    C    0.75533999    0.15512999    0.40707058    0.61900000
opls_142-104    C    0.88559009    0.06148001    0.52085968    -0.11500000
opls_145-105    C    0.75139006    0.16733003    0.25985034    -0.11500000
opls_145-106    C    0.73775004    0.18496997    0.26352985    -0.11500000
opls_700-107    C    0.72839011    0.19113007    0.41535010    0.61900000
opls_145-108    C    0.73276986    0.17918990    0.56274053    -0.11500000
opls_145-109    C    0.74638005    0.16151998    0.55880015    -0.11500000
opls_558-110    C    0.72876998    0.06039003    0.48086952    0.27500000
opls_142-111    C    0.71501007    0.21066011    0.42348056    -0.11500000
opls_142-112    C    0.76219001    0.03850006    0.48339996    -0.11500000
opls_142-113    C    0.70163997    0.08817007    0.42677000    -0.11500000
opls_145-114    C    0.91755010    0.04378004    0.40090037    -0.11500000
opls_145-115    C    0.92250005    0.03235995    0.25424038    -0.11500000
opls_145-116    C    0.94042998    0.01905989    0.25488014    -0.11500000
opls_700-117    C    0.95314000    0.01623000    0.40311032    0.61900000
opls_145-118    C    0.95033995    0.03000001    0.54671937    -0.11500000
opls_145-119    C    0.93240996    0.04335000    0.54697030    -0.11500000
opls_143-120    C    0.69605001    0.08869009    0.24101054    -0.23000000
opls_143-121    C    0.75969001    0.02701998    0.66068984    -0.23000000
opls_700-122    C    0.69296006    0.33886996    0.23105026    0.61900000
opls_145-123    C    0.46483011    0.70988013    0.87818976    -0.11500000
opls_145-124    C    0.44972010    0.69664013    0.73005026    -0.11500000
opls_145-125    C    0.41886001    0.68575995    0.71552973    -0.11500000
opls_700-126    C    0.40270989    0.68818000    0.84893006    0.61900000
opls_145-127    C    0.41782999    0.70215004    0.99585962    -0.11500000
opls_145-128    C    0.44865999    0.71296003    0.01077021    -0.11500000
opls_700-129    C    0.97865993    0.98290012    0.87932020    0.61900000
opls_700-130    C    0.36979998    0.67529014    0.83817972    0.61900000
opls_145-131    C    0.68639005    0.83468014    0.95755021    -0.11500000
opls_145-132    C    0.65522991    0.81552001    0.94557005    -0.11500000
opls_700-133    C    0.64162000    0.78575013    0.00320995    0.61900000
opls_624-134    C    0.66046997    0.77580014    0.07113061    0.03800000
opls_624-135    C    0.69105013    0.79499019    0.08914059    0.03800000
opls_700-136    C    0.70494005    0.82485019    0.02954045    0.61900000
opls_700-137    C    0.73758001    0.84560007    0.02639013    0.61900000
opls_145-138    C    0.75599991    0.84044994    0.91872029    -0.11500000
opls_145-139    C    0.78684997    0.86090011    0.91117990    -0.11500000
opls_700-140    C    0.79946997    0.88712011    0.00815033    0.61900000
opls_145-141    C    0.78086008    0.89245002    0.11307978    -0.11500000
opls_145-142    C    0.75011994    0.87179012    0.12248975    -0.11500000
opls_700-143    C    0.60852992    0.76808002    0.00704971    0.61900000
opls_142-144    C    0.83169990    0.90947002    0.99840000    -0.11500000
opls_145-145    C    0.59207003    0.75932001    0.85865058    -0.11500000
opls_145-146    C    0.56069009    0.74533013    0.86209034    -0.11500000
opls_700-147    C    0.54539005    0.74016004    0.01432053    0.61900000
opls_145-148    C    0.56198009    0.74879016    0.16251966    -0.11500000
opls_145-149    C    0.59331997    0.76293010    0.15880039    -0.11500000
opls_558-150    C    0.67966005    0.75158016    0.18498058    0.27500000
opls_142-151    C    0.51244995    0.72699004    0.02145968    -0.11500000
opls_142-152    C    0.73300000    0.79008009    0.23621052    -0.11500000
opls_142-153    C    0.62400999    0.72027010    0.11558041    -0.11500000
opls_145-154    C    0.88242003    0.92262009    0.92110043    -0.11500000
opls_145-155    C    0.90193011    0.91115013    0.91964949    -0.11500000
opls_145-156    C    0.93290003    0.93032998    0.90373020    -0.11500000
opls_700-157    C    0.94516998    0.96159009    0.88041958    0.61900000
opls_145-158    C    0.92475004    0.97232999    0.86856986    -0.11500000
opls_145-159    C    0.89408990    0.95341998    0.89455005    -0.11500000
opls_143-160    C    0.62568004    0.69192016    0.14885006    -0.23000000
opls_143-161    C    0.73192005    0.78911005    0.42576006    -0.23000000
opls_145-162    C    0.35854007    0.69508005    0.83306045    -0.11500000
opls_700-163    C    0.95995995    0.97041000    0.37569037    0.61900000
opls_145-164    C    0.29162999    0.74370995    0.88595997    -0.11500000
opls_145-165    C    0.27862010    0.71958008    0.77491000    -0.11500000
opls_145-166    C    0.29046012    0.70049012    0.75643045    -0.11500000
opls_700-167    C    0.31589998    0.70548999    0.84750024    0.61900000
opls_145-168    C    0.32955004    0.73029995    0.95479989    -0.11500000
opls_145-169    C    0.31763996    0.74929008    0.97370056    -0.11500000
opls_700-170    C    0.03014992    0.99181007    0.87702951    0.61900000
opls_700-171    C    0.32753994    0.68433993    0.83647040    0.61900000
opls_145-172    C    0.17759003    0.85073007    0.16022027    -0.11500000
opls_145-173    C    0.19367001    0.83537004    0.14725999    -0.11500000
opls_700-174    C    0.22172989    0.84854002    0.06679023    0.61900000
opls_624-175    C    0.23337999    0.87785002    0.00279007    0.03800000
opls_624-176    C    0.21781998    0.89316003    0.01842986    0.03800000
opls_700-177    C    0.18919994    0.87980002    0.09417042    0.61900000
opls_700-178    C    0.16994002    0.89344016    0.09523005    0.61900000
opls_145-179    C    0.15574992    0.89450995    0.94862969    -0.11500000
opls_145-180    C    0.13722001    0.90717000    0.94917006    -0.11500000
opls_700-181    C    0.13210991    0.91836002    0.09743999    0.61900000
opls_145-182    C    0.14549999    0.91623008    0.24505030    -0.11500000
opls_145-183    C    0.16407002    0.90361009    0.24423042    -0.11500000
opls_700-184    C    0.23741986    0.83127997    0.05507964    0.61900000
opls_142-185    C    0.11318999    0.93246015    0.10064000    -0.11500000
opls_145-186    C    0.23328997    0.81333004    0.91579979    -0.11500000
opls_145-187    C    0.24779995    0.79654002    0.90583952    -0.11500000
opls_700-188    C    0.26637000    0.79725006    0.03632059    0.61900000
opls_145-189    C    0.27007995    0.81496009    0.17654951    -0.11500000
opls_145-190    C    0.25556989    0.83174998    0.18628990    -0.11500000
opls_558-191    C    0.25998000    0.92181016    0.89762956    0.27500000
opls_142-192    C    0.28181990    0.77958997    0.02970939    -0.11500000
opls_142-193    C    0.23089999    0.94734017    0.95916015    -0.11500000
opls_142-194    C    0.28354008    0.88854013    0.88327052    -0.11500000
opls_145-195    C    0.08272002    0.94902014    0.94913031    -0.11500000
opls_145-196    C    0.08033006    0.96663021    0.07552938    -0.11500000
opls_145-197    C    0.06322003    0.98047020    0.05008957    -0.11500000
opls_700-198    C    0.04889994    0.97771014    0.89799975    0.61900000
opls_145-199    C    0.05023004    0.95926003    0.77450006    -0.11500000
opls_145-200    C    0.06743010    0.94544013    0.79912000    -0.11500000
opls_143-201    C    0.31077006    0.91409000    0.79666036    -0.23000000
opls_143-202    C    0.23817008    0.96137016    0.13182020    -0.23000000
opls_145-203    C    0.30766994    0.65328996    0.84067041    -0.11500000
opls_145-204    C    0.01126003    0.97900018    0.39664943    -0.11500000
opls_145-205    C    0.99907996    0.97247006    0.86241953    -0.11500000
opls_145-206    C    0.74622006    0.45399996    0.27958951    -0.11500000
opls_145-207    C    0.73138007    0.44250001    0.12832951    -0.11500000
opls_145-208    C    0.71051994    0.41191994    0.11162015    -0.11500000
opls_700-209    C    0.70427001    0.39247014    0.24664036    0.61900000
opls_145-210    C    0.71825012    0.40400012    0.39969043    -0.11500000
opls_145-211    C    0.73908992    0.43449998    0.41659979    -0.11500000
opls_700-212    C    0.98036000    0.95937018    0.37972020    0.61900000
opls_700-213    C    0.68297001    0.36000995    0.22966020    0.61900000
opls_145-214    C    0.86534004    0.67393010    0.52540006    -0.11500000
opls_145-215    C    0.84929002    0.64257003    0.50964971    -0.11500000
opls_700-216    C    0.86183993    0.62740999    0.42674019    0.61900000
opls_624-217    C    0.89122990    0.64471001    0.36276985    0.03800000
opls_624-218    C    0.90733006    0.67547003    0.38249039    0.03800000
opls_700-219    C    0.89457995    0.69105006    0.46040984    0.61900000
opls_700-220    C    0.90891013    0.72399015    0.46566948    0.61900000
opls_145-221    C    0.91193993    0.74028005    0.31987036    -0.11500000
opls_145-222    C    0.92330008    0.77127011    0.32682938    -0.11500000
opls_700-223    C    0.93112001    0.78623008    0.48048939    0.61900000
opls_145-224    C    0.92769993    0.76976002    0.62605994    -0.11500000
opls_145-225    C    0.91647000    0.73884998    0.61884998    -0.11500000
opls_700-226    C    0.84404010    0.59453010    0.41575010    0.61900000
opls_142-227    C    0.94167990    0.81857999    0.49368943    -0.11500000
opls_145-228    C    0.82402002    0.58092006    0.28356965    -0.11500000
opls_145-229    C    0.80574013    0.54972014    0.27820939    -0.11500000
opls_700-230    C    0.80710004    0.53176011    0.40616995    0.61900000
opls_145-231    C    0.82719990    0.54554996    0.53834047    -0.11500000
opls_145-232    C    0.84542003    0.57675998    0.54368955    -0.11500000
opls_558-233    C    0.93519996    0.66139008    0.25890002    0.27500000
opls_142-234    C    0.78736002    0.49884998    0.40622958    -0.11500000
opls_142-235    C    0.96244002    0.71540002    0.33589028    -0.11500000
opls_142-236    C    0.90023007    0.60490009    0.23409996    -0.11500000
opls_145-237    C    0.95368993    0.86604005    0.36809036    -0.11500000
opls_145-238    C    0.96893007    0.88455005    0.23230989    -0.11500000
opls_145-239    C    0.97759002    0.91502008    0.23456953    -0.11500000
opls_700-240    C    0.97020993    0.92704010    0.37082949    0.61900000
opls_145-241    C    0.95465001    0.90852997    0.50525964    -0.11500000
opls_145-242    C    0.94622003    0.87823013    0.50401989    -0.11500000
opls_143-243    C    0.92484003    0.60289006    0.13903016    -0.23000000
opls_143-244    C    0.97457009    0.72021011    0.51293047    -0.23000000
opls_145-245    C    0.65220999    0.35023997    0.21976949    -0.11500000
opls_142-246    C    0.36225990    0.62288000    0.87447050    -0.11500000
opls_528-247    C    0.35809008    0.61675005    0.17515944    0.19200000
opls_528-248    C    0.37588004    0.62687006    0.33726047    0.19200000
opls_528-249    C    0.41954000    0.63106009    0.19788993    0.19200000
opls_528-250    C    0.40162989    0.62095996    0.03436033    0.19200000
opls_143-251    C    0.44327002    0.62137996    0.20242038    -0.23000000
opls_142-252    C    0.72642991    0.34965992    0.21921048    -0.11500000
opls_528-253    C    0.77123005    0.38356014    0.06360016    0.19200000
opls_528-254    C    0.78377004    0.39921994    0.89535999    0.19200000
opls_528-255    C    0.74135003    0.35697007    0.75630995    0.19200000
opls_528-256    C    0.72982993    0.34165997    0.92464950    0.19200000
opls_143-257    C    0.77571002    0.42378993    0.86036984    -0.23000000
opls_142-258    C    0.92873009    0.95057019    0.30084050    -0.11500000
opls_528-259    C    0.88549010    0.90392013    0.38980966    0.19200000
opls_528-260    C    0.85725999    0.88841001    0.49933043    0.19200000
opls_528-261    C    0.85453011    0.93369013    0.50327951    0.19200000
opls_528-262    C    0.88377000    0.95004014    0.40182957    0.19200000
opls_143-263    C    0.83958988    0.85459997    0.46575023    -0.23000000
opls_142-264    C    0.07566992    0.04478993    0.85642946    -0.11500000
opls_528-265    C    0.11843004    0.05554993    0.03756034    0.19200000
opls_528-266    C    0.14448988    0.07275995    0.91252028    0.19200000
opls_528-267    C    0.13643009    0.11402008    0.98719003    0.19200000
opls_528-268    C    0.10244993    0.09315003    0.01066959    0.19200000
opls_143-269    C    0.17419005    0.07722008    0.98421984    -0.23000000
opls_557-270    N    0.09478002    0.35777003    0.95818996    -0.25700000
opls_557-271    N    0.06815996    0.30738993    0.98975029    -0.25700000
opls_750-272    N    0.23420996    0.50752999    0.92682963    -0.78500000
opls_750-273    N    0.05721999    0.15811001    0.97938007    -0.78500000
opls_557-274    N    0.34635001    0.25261012    0.43300977    -0.25700000
opls_557-275    N    0.30060000    0.21982995    0.53674046    -0.25700000
opls_750-276    N    0.50378008    0.27553009    0.21232972    -0.78500000
opls_750-277    N    0.15149989    0.09115993    0.46362972    -0.78500000
opls_557-278    N    0.72884001    0.08638005    0.45600983    -0.25700000
opls_557-279    N    0.75661004    0.06376989    0.47886951    -0.25700000
opls_750-280    N    0.71065013    0.22204012    0.28920941    -0.78500000
opls_750-281    N    0.89799001    0.05621007    0.39454011    -0.78500000
opls_557-282    N    0.65329988    0.74812998    0.12720032    -0.25700000
opls_557-283    N    0.70298011    0.77990015    0.16708986    -0.25700000
opls_750-284    N    0.49663994    0.72104999    0.88631028    -0.78500000
opls_750-285    N    0.85079008    0.90225012    0.94025948    -0.78500000
opls_557-286    N    0.25997006    0.89574008    0.92511037    -0.25700000
opls_557-287    N    0.23480001    0.92104003    0.95352038    -0.25700000
opls_750-288    N    0.27796009    0.76202014    0.90485939    -0.78500000
opls_750-289    N    0.10082996    0.93506014    0.96539991    -0.78500000
opls_557-290    N    0.90855010    0.63568008    0.28240940    -0.25700000
opls_557-291    N    0.93529997    0.68591001    0.31972005    -0.25700000
opls_750-292    N    0.76741011    0.48561013    0.29019948    -0.78500000
opls_750-293    N    0.94530009    0.83491013    0.36285059    -0.78500000
opls_239-294    N    0.37878008    0.63027010    0.03333052    -0.14000000
opls_238-295    N    0.39900999    0.61806008    0.34045054    -0.50000000
opls_239-296    N    0.73823995    0.36437009    0.05680014    -0.14000000
opls_238-297    N    0.77407997    0.37695004    0.76033978    -0.50000000
opls_239-298    N    0.90337991    0.93668002    0.42239981    -0.14000000
opls_238-299    N    0.83796999    0.90142012    0.46938999    -0.50000000
opls_239-300    N    0.09273010    0.06051006    0.00820996    -0.14000000
opls_238-301    N    0.14726000    0.10156003    0.85948040    -0.50000000
F2_Au4+3-302    Au    0.03024003    0.33069002    0.86018971    0.00000000
F2_Au1f1-303    Au    0.31834993    0.28303006    0.60733940    0.00000000
F2_Au4+3-304    Au    0.69134986    0.02063991    0.49820993    0.00000000
F2_Au1f1-305    Au    0.68474003    0.71911002    0.28753984    0.00000000
F2_Au4+3-306    Au    0.29374010    0.95869015    0.79618956    0.00000000
F2_Au4+3-307    Au    0.97171004    0.66374001    0.15723020    0.00000000
MOF2_Cl-308    Cl    0.31415010    0.32166009    0.70924027    0.00000000
MOF2_Cl-309    Cl    0.10790992    0.33165994    0.54209948    0.00000000
MOF2_Cl-310    Cl    0.69046999    0.68226005    0.40368051    0.00000000
MOF2_Cl-311    Cl    0.76596991    0.09711998    0.94045948    0.00000000
MOF2_Cl-312    Cl    0.26509010    0.03482007    0.86862949    0.00000000
MOF2_Cl-313    Cl    0.97543008    0.75931006    0.94119985    0.00000000
opls_146-314    H    0.26587000    0.53367997    0.65345007    0.11500000
opls_146-315    H    0.30294000    0.58889004    0.61371954    0.11500000
opls_146-316    H    0.28440010    0.60690013    0.12104999    0.11500000
opls_146-317    H    0.24749011    0.55160015    0.16220040    0.11500000
opls_146-318    H    0.15179994    0.30537009    0.20600051    0.11500000
opls_146-319    H    0.18109001    0.36228994    0.18209983    0.11500000
opls_146-320    H    0.09854996    0.26527995    0.83270021    0.11500000
opls_146-321    H    0.07664997    0.20890998    0.83664059    0.11500000
opls_146-322    H    0.07026003    0.20909010    0.38208045    0.11500000
opls_146-323    H    0.09199002    0.26539009    0.37741957    0.11500000
opls_144-324    H    0.05538998    0.16093008    0.23997948    0.11500000
opls_146-325    H    0.17795000    0.39790992    0.81180947    0.11500000
opls_146-326    H    0.21047999    0.45460001    0.80166038    0.11500000
opls_146-327    H    0.18117010    0.46028011    0.30769021    0.11500000
opls_146-328    H    0.14875992    0.40370994    0.31717967    0.11500000
opls_144-329    H    0.21698012    0.50737015    0.16438053    0.11500000
opls_144-330    H    0.03185003    0.26298003    0.88797985    0.11500000
opls_144-331    H    0.12648006    0.40806008    0.94293029    0.11500000
opls_146-332    H    0.03505991    0.11518997    0.22941051    0.11500000
opls_146-333    H    0.01965992    0.06049003    0.18986010    0.11500000
opls_146-334    H    0.04020986    0.07652991    0.65793952    0.11500000
opls_146-335    H    0.05552990    0.13100993    0.69506011    0.11500000
opls_144-336    H    0.06497000    0.37773007    0.72567013    0.11500000
opls_144-337    H    0.06994008    0.40718010    0.89763950    0.11500000
opls_144-338    H    0.00596004    0.25274006    0.20955953    0.11500000
opls_144-339    H    0.04552004    0.28482008    0.28792991    0.11500000
opls_146-340    H    0.53254995    0.25548011    0.02222987    0.11500000
opls_146-341    H    0.58836007    0.27409007    0.02408950    0.11500000
opls_146-342    H    0.60173008    0.34323004    0.38941960    0.11500000
opls_146-343    H    0.54599005    0.32440000    0.38948047    0.11500000
opls_146-344    H    0.30528005    0.13842007    0.30869021    0.11500000
opls_146-345    H    0.36015005    0.17457998    0.23963041    0.11500000
opls_146-346    H    0.25059988    0.17652996    0.28738953    0.11500000
opls_146-347    H    0.19539995    0.13851002    0.32789026    0.11500000
opls_146-348    H    0.21994985    0.08286989    0.63251958    0.11500000
opls_146-349    H    0.27496994    0.12166991    0.59981019    0.11500000
opls_144-350    H    0.16640994    0.06211000    0.54915043    0.11500000
opls_146-351    H    0.39516004    0.22160999    0.06351941    0.11500000
opls_146-352    H    0.45210995    0.24948999    0.06359022    0.11500000
opls_146-353    H    0.45228998    0.27561007    0.58415052    0.11500000
opls_146-354    H    0.39545992    0.24697999    0.58545984    0.11500000
opls_144-355    H    0.50113005    0.29316993    0.44315017    0.11500000
opls_144-356    H    0.25053002    0.19558997    0.58846979    0.11500000
opls_144-357    H    0.39508998    0.28944997    0.41663954    0.11500000
opls_146-358    H    0.10959998    0.10678994    0.43021970    0.11500000
opls_146-359    H    0.05396995    0.07152004    0.39180967    0.11500000
opls_146-360    H    0.06739991    0.99470989    0.48538009    0.11500000
opls_146-361    H    0.12313006    0.02977003    0.50332051    0.11500000
opls_144-362    H    0.34895999    0.28721993    0.13729972    0.11500000
opls_144-363    H    0.36086990    0.31932001    0.30396970    0.11500000
opls_144-364    H    0.30764010    0.23003004    0.86202947    0.11500000
opls_144-365    H    0.26547994    0.21747007    0.91645942    0.11500000
opls_146-366    H    0.01076007    0.04439001    0.47746951    0.11500000
opls_146-367    H    0.62352013    0.27351013    0.21989993    0.11500000
MOF2_H_-368    H    0.13849003    0.34693003    0.54196035    0.00000000
opls_146-369    H    0.97431996    0.02231995    0.92831038    0.11500000
opls_146-370    H    0.68779999    0.23271992    0.01672054    0.11500000
opls_146-371    H    0.66960006    0.26998002    0.98961985    0.11500000
opls_146-372    H    0.69125001    0.29457005    0.51525967    0.11500000
opls_146-373    H    0.70914009    0.25701000    0.54361005    0.11500000
opls_146-374    H    0.84562006    0.15415005    0.37201956    0.11500000
opls_146-375    H    0.81423012    0.17962011    0.34900956    0.11500000
opls_146-376    H    0.83632006    0.09878998    0.18610978    0.11500000
opls_146-377    H    0.87102994    0.07752006    0.22380056    0.11500000
opls_146-378    H    0.85612001    0.07296996    0.76429010    0.11500000
opls_146-379    H    0.82163995    0.09446006    0.72611982    0.11500000
opls_144-380    H    0.89033996    0.05638001    0.65166000    0.11500000
opls_146-381    H    0.75931995    0.16286995    0.13646990    0.11500000
opls_146-382    H    0.73414996    0.19445006    0.14312955    0.11500000
opls_146-383    H    0.72521001    0.18388996    0.68664022    0.11500000
opls_146-384    H    0.75022984    0.15223988    0.67925013    0.11500000
opls_144-385    H    0.70836003    0.21593994    0.54862993    0.11500000
opls_144-386    H    0.76749005    0.03026010    0.36373010    0.11500000
opls_144-387    H    0.68802002    0.08896006    0.53643984    0.11500000
opls_146-388    H    0.91184997    0.03387997    0.13302021    0.11500000
opls_146-389    H    0.94485988    0.01037994    0.13412953    0.11500000
opls_146-390    H    0.96276001    0.03038993    0.66491966    0.11500000
opls_146-391    H    0.92982998    0.05389999    0.66566004    0.11500000
opls_144-392    H    0.71540998    0.09611998    0.14929975    0.11500000
opls_144-393    H    0.67251008    0.08165007    0.19388992    0.11500000
opls_144-394    H    0.73689007    0.00946995    0.71219059    0.11500000
opls_144-395    H    0.78061990    0.03598990    0.74179936    0.11500000
opls_146-396    H    0.46260988    0.69466996    0.62009968    0.11500000
opls_146-397    H    0.40673998    0.67486015    0.59477042    0.11500000
opls_146-398    H    0.40497001    0.70472998    0.10389964    0.11500000
opls_146-399    H    0.46086005    0.72433006    0.13053945    0.11500000
opls_146-400    H    0.69709993    0.85866000    0.90853021    0.11500000
opls_146-401    H    0.64055004    0.82402004    0.88844941    0.11500000
opls_146-402    H    0.74580997    0.81956001    0.83720953    0.11500000
opls_146-403    H    0.80186994    0.85635999    0.82622938    0.11500000
opls_146-404    H    0.79081005    0.91374018    0.19126010    0.11500000
opls_146-405    H    0.73512998    0.87620005    0.20853965    0.11500000
opls_144-406    H    0.84015007    0.93344007    0.04219017    0.11500000
opls_146-407    H    0.60425995    0.76359011    0.73458940    0.11500000
opls_146-408    H    0.54738003    0.73805996    0.74118942    0.11500000
opls_146-409    H    0.54988003    0.74427005    0.28699947    0.11500000
opls_146-410    H    0.60654008    0.77030007    0.27995970    0.11500000
opls_144-411    H    0.50053004    0.72189001    0.14674943    0.11500000
opls_144-412    H    0.75301991    0.79728998    0.14958050    0.11500000
opls_144-413    H    0.60291987    0.72133996    0.08420021    0.11500000
opls_146-414    H    0.89262994    0.88593999    0.93152033    0.11500000
opls_146-415    H    0.94877003    0.92088014    0.90942959    0.11500000
opls_146-416    H    0.93328993    0.99690999    0.83719960    0.11500000
opls_146-417    H    0.87827012    0.96296011    0.89433017    0.11500000
opls_144-418    H    0.60418987    0.66913996    0.15405007    0.11500000
opls_144-419    H    0.64842008    0.69353009    0.16849980    0.11500000
opls_144-420    H    0.70934002    0.77706001    0.49272048    0.11500000
opls_144-421    H    0.75368995    0.80044004    0.50034037    0.11500000
opls_146-422    H    0.37468012    0.72032013    0.82600951    0.11500000
MOF2_H_-423    H    0.79655002    0.11239007    0.94032035    0.00000000
MOF2_H_-424    H    0.29566990    0.05008994    0.86849036    0.00000000
opls_146-425    H    0.25818003    0.71535012    0.69851975    0.11500000
opls_146-426    H    0.27947001    0.68072012    0.66704017    0.11500000
opls_146-427    H    0.35054004    0.73508006    0.02739013    0.11500000
opls_146-428    H    0.32898006    0.76942006    0.06049953    0.11500000
opls_146-429    H    0.15479004    0.83966009    0.22496950    0.11500000
opls_146-430    H    0.18400995    0.81190001    0.20236945    0.11500000
opls_146-431    H    0.15931995    0.88502996    0.82842939    0.11500000
opls_146-432    H    0.12615004    0.90847002    0.82909026    0.11500000
opls_146-433    H    0.14125002    0.92483002    0.36659967    0.11500000
opls_146-434    H    0.17450004    0.90156004    0.36500960    0.11500000
opls_144-435    H    0.10927995    0.94121010    0.22260055    0.11500000
opls_146-436    H    0.21806002    0.81239006    0.81016971    0.11500000
opls_146-437    H    0.24461003    0.78217998    0.79161936    0.11500000
opls_146-438    H    0.28501000    0.81571013    0.28340940    0.11500000
opls_146-439    H    0.25852999    0.84585019    0.30133988    0.11500000
opls_144-440    H    0.29740995    0.78124008    0.13507984    0.11500000
opls_144-441    H    0.22335990    0.95455996    0.84333998    0.11500000
opls_144-442    H    0.28037002    0.86556014    0.91595010    0.11500000
opls_146-443    H    0.09238994    0.96959010    0.19892969    0.11500000
opls_146-444    H    0.06081009    0.99418009    0.15380038    0.11500000
opls_146-445    H    0.03726004    0.95549013    0.65359044    0.11500000
opls_146-446    H    0.06894996    0.93115004    0.69575949    0.11500000
opls_144-447    H    0.31989997    0.90956007    0.67786007    0.11500000
opls_144-448    H    0.32197999    0.93771001    0.85074000    0.11500000
opls_144-449    H    0.26247992    0.97427010    0.17626007    0.11500000
opls_144-450    H    0.21929006    0.95896017    0.21643035    0.11500000
opls_146-451    H    0.28236009    0.64415013    0.83961948    0.11500000
MOF2_H_-452    H    0.00601000    0.77458015    0.94105948    0.00000000
opls_146-453    H    0.02694007    0.96938004    0.38647053    0.11500000
opls_146-454    H    0.98982996    0.94761011    0.83618966    0.11500000
opls_146-455    H    0.73626998    0.45811997    0.01751060    0.11500000
opls_146-456    H    0.69859005    0.40281014    0.98799997    0.11500000
opls_146-457    H    0.71263004    0.38843995    0.51144972    0.11500000
opls_146-458    H    0.75040008    0.44371004    0.54153054    0.11500000
opls_146-459    H    0.85471009    0.68590006    0.59162010    0.11500000
opls_146-460    H    0.82573993    0.62903994    0.56449954    0.11500000
opls_146-461    H    0.90512993    0.72825003    0.19512968    0.11500000
opls_146-462    H    0.92624998    0.78449014    0.20770983    0.11500000
opls_146-463    H    0.93411004    0.78162011    0.75135963    0.11500000
opls_146-464    H    0.91340995    0.72559000    0.73793972    0.11500000
opls_144-465    H    0.94686993    0.82982004    0.62074937    0.11500000
opls_146-466    H    0.82261000    0.59530003    0.17996939    0.11500000
opls_146-467    H    0.78962997    0.53870000    0.16983024    0.11500000
opls_146-468    H    0.82872994    0.53127002    0.64217054    0.11500000
opls_146-469    H    0.86145003    0.58781009    0.65233951    0.11500000
opls_144-470    H    0.78950009    0.48473013    0.50882984    0.11500000
opls_144-471    H    0.97150003    0.73103012    0.22385025    0.11500000
opls_144-472    H    0.87716010    0.58533016    0.26836961    0.11500000
opls_146-473    H    0.97434010    0.87480011    0.11918042    0.11500000
opls_146-474    H    0.99066003    0.93011000    0.12556056    0.11500000
opls_146-475    H    0.94876008    0.91818013    0.61699035    0.11500000
opls_146-476    H    0.93322000    0.86330000    0.61368972    0.11500000
opls_144-477    H    0.91857998    0.58468008    0.04145973    0.11500000
opls_144-478    H    0.94949000    0.61960004    0.16553954    0.11500000
opls_144-479    H    0.99845997    0.72504009    0.53667959    0.11500000
opls_144-480    H    0.95973999    0.71897015    0.62147980    0.11500000
opls_146-481    H    0.64462995    0.36761003    0.21573967    0.11500000
opls_144-482    H    0.35806997    0.60499009    0.77811001    0.11500000
opls_146-483    H    0.33300994    0.60139011    0.15245007    0.11500000
opls_146-484    H    0.37019012    0.63938013    0.43422965    0.11500000
opls_910-485    H    0.39913997    0.60348006    0.44191041    0.38000000
opls_146-486    H    0.40718995    0.60832006    0.93757997    0.11500000
opls_144-487    H    0.43914990    0.60028998    0.13388977    0.11500000
opls_144-488    H    0.46505999    0.63525996    0.27431994    0.11500000
opls_144-489    H    0.73844001    0.34578994    0.32732007    0.11500000
opls_146-490    H    0.78379993    0.38514008    0.18330977    0.11500000
opls_910-491    H    0.79101991    0.37669996    0.67579050    0.38000000
opls_146-492    H    0.72830004    0.35471004    0.63752953    0.11500000
opls_146-493    H    0.71679004    0.31611994    0.93348058    0.11500000
opls_144-494    H    0.75229997    0.41736998    0.81365047    0.11500000
opls_144-495    H    0.79315005    0.44839997    0.88118977    0.11500000
opls_144-496    H    0.92601011    0.94722016    0.16064015    0.11500000
opls_146-497    H    0.89339996    0.89331012    0.29259948    0.11500000
opls_910-498    H    0.81444010    0.88690015    0.42714019    0.38000000
opls_146-499    H    0.84523989    0.94372998    0.59597042    0.11500000
opls_146-500    H    0.88842992    0.97021008    0.32167036    0.11500000
opls_144-501    H    0.85109001    0.84317008    0.40293019    0.11500000
opls_144-502    H    0.81493996    0.84086007    0.50357020    0.11500000
opls_144-503    H    0.08516006    0.04738995    0.72556950    0.11500000
opls_146-504    H    0.11748009    0.04036001    0.14348980    0.11500000
opls_910-505    H    0.15669005    0.11102993    0.73537947    0.38000000
opls_146-506    H    0.15278991    0.13600000    0.05095044    0.11500000
opls_146-507    H    0.08511007    0.10055003    0.02885970    0.11500000
opls_144-508    H    0.18571995    0.06556995    0.92429050    0.11500000
opls_144-509    H    0.18469000    0.09217992    0.09731950    0.11500000
