#======================================================================
# Crystal Data Generated By AuToFF
#----------------------------------------------------------------------

data_AuToFF_phase_1

_cell_length_a                         25.8040
_cell_length_b                         6.7470
_cell_length_c                         26.2324
_cell_angle_alpha                      90.00
_cell_angle_beta                       101.74
_cell_angle_gamma                      90.00
_symmetry_space_group_name_H-M_alt     'P 1'
_symmetry_space_group_IT_number        1

loop_
_space_group_symop_operation_xyz
   'x, y, z'

loop_
   _atom_site_label
   _atom_site_type_symbol
   _atom_site_fract_x
   _atom_site_fract_y
   _atom_site_fract_z
   _atom_site_charge
opls_145-0    C    0.09156993    0.46808952    0.07874993    -0.22330000
opls_145-1    C    0.57754995    0.35689936    0.54870004    -0.15030000
opls_145-2    C    0.01701011    0.54224989    0.98859989    -0.22060000
opls_145-3    C    0.53262004    0.72602935    0.51726992    -0.15100000
opls_145-4    C    0.58571027    0.68621017    0.51447012    -0.09210000
opls_166-5    C    0.00226998    0.56230028    0.03757014    0.17640000
opls_145-6    C    0.52436029    0.39756040    0.55139005    -0.14870000
opls_166-7    C    0.10639989    0.44610049    0.02973996    0.17880000
opls_142-8    C    0.44711989    0.62700015    0.53760985    0.09950000
opls_142-9    C    0.07641006    0.43832074    0.93198012    0.10020000
opls_261-10    C    0.66270024    0.45598044    0.52807005    0.20110000
opls_142-11    C    0.03009009    0.56930932    0.13483007    0.08900000
opls_700-12    C    0.60938031    0.50050986    0.52995021    0.01180000
opls_700-13    C    0.04055983    0.53020009    0.08444998    -0.04820000
opls_700-14    C    0.50064001    0.58307989    0.53595006    0.04950000
opls_700-15    C    0.06795014    0.47879057    0.98290022    -0.04310000
opls_543-16    C    0.09526006    0.51469987    0.42876994    0.15250000
opls_543-17    C    0.94959025    0.53004002    0.56922998    0.15020000
opls_543-18    C    0.01650015    0.53026975    0.63974013    0.15140000
opls_543-19    C    0.16214027    0.51973025    0.49932020    0.15020000
opls_716-20    C    0.14290010    0.51539054    0.41148989    -0.22960000
opls_716-21    C    0.92821996    0.53961020    0.61408015    -0.22990000
opls_716-22    C    0.96896009    0.53820068    0.65711012    -0.23020000
opls_716-23    C    0.18360024    0.51712020    0.45448015    -0.22970000
opls_507-24    C    0.99745995    0.51314955    0.41610990    0.15730000
opls_507-25    C    0.94087991    0.52005929    0.47166987    0.15750000
opls_507-26    C    0.11432994    0.52507040    0.65242003    0.15630000
opls_507-27    C    0.17088030    0.52282051    0.59690017    0.15790000
opls_716-28    C    0.94604013    0.50570031    0.38677019    -0.23000000
opls_716-29    C    0.91147004    0.51013043    0.42074003    -0.23020000
opls_716-30    C    0.16574999    0.52613013    0.68186020    -0.22990000
opls_716-31    C    0.20032000    0.52488069    0.64788997    -0.23020000
opls_700-32    C    0.04430007    0.51076034    0.39525019    -0.08200000
opls_700-33    C    0.91893007    0.52643990    0.51736999    -0.08260000
opls_700-34    C    0.06747022    0.52855047    0.67316995    -0.08270000
opls_700-35    C    0.19279007    0.52208982    0.55118993    -0.09750000
opls_700-36    C    0.04139026    0.50140952    0.34000014    0.05730000
opls_700-37    C    0.86272026    0.53099007    0.51195999    0.06970000
opls_700-38    C    0.07054009    0.53382985    0.72841999    0.05720000
opls_700-39    C    0.24896019    0.52243960    0.55646987    0.06710000
opls_145-40    C    0.05280007    0.32274937    0.31595011    -0.15740000
opls_145-41    C    0.03025003    0.66995998    0.30713994    -0.15260000
opls_145-42    C    0.83414000    0.70987995    0.50036988    -0.19610000
opls_145-43    C    0.83405024    0.36041945    0.52136002    -0.14870000
opls_145-44    C    0.07517022    0.35892989    0.75921003    -0.15260000
opls_145-45    C    0.06621019    0.71511931    0.75470021    -0.15710000
opls_145-46    C    0.27655993    0.69812065    0.54912988    -0.19610000
opls_145-47    C    0.27867011    0.34502001    0.56564992    -0.19590000
opls_145-48    C    0.05520992    0.31506003    0.26245018    -0.19540000
opls_145-49    C    0.03196008    0.66104046    0.25331997    -0.22140000
opls_145-50    C    0.77935021    0.71929005    0.50032004    -0.19740000
opls_145-51    C    0.77933019    0.37088928    0.52155003    -0.19540000
opls_145-52    C    0.07406000    0.36495035    0.81317017    -0.21390000
opls_145-53    C    0.06444000    0.71995998    0.80839987    -0.19540000
opls_145-54    C    0.33118010    0.69423003    0.54832004    -0.19910000
opls_145-55    C    0.33337994    0.34216985    0.56520996    -0.19910000
opls_145-56    C    0.04530996    0.48380021    0.22983995    0.16500000
opls_145-57    C    0.75100022    0.55187935    0.51200983    0.17960000
opls_145-58    C    0.06793024    0.54575960    0.83905986    0.16440000
opls_145-59    C    0.36059005    0.51535942    0.55532986    0.17950000
opls_465-60    C    0.91274990    0.55606047    0.06073985    0.43660000
opls_465-61    C    0.19720998    0.38728027    0.00728003    0.43660000
opls_145-62    C    0.63740013    0.35175041    0.19309990    -0.16000000
opls_145-63    C    0.58306010    0.39646065    0.18056990    -0.16220000
opls_145-64    C    0.56231008    0.51080036    0.13642016    -0.15980000
opls_145-65    C    0.59579023    0.57815029    0.10360007    -0.19890000
opls_145-66    C    0.65048016    0.53240996    0.11493983    0.11830000
opls_145-67    C    0.67047019    0.41914036    0.16018013    -0.20010000
opls_145-68    C    0.75175996    0.74423003    0.01539988    -0.20010000
opls_145-69    C    0.76727989    0.62989032    0.06104004    0.12530000
opls_145-70    C    0.78909027    0.79856973    0.98552015    -0.15980000
opls_145-71    C    0.84224985    0.73824070    0.00093989    -0.15100000
opls_700-72    C    0.85946007    0.62249000    0.04653994    -0.07430000
opls_145-73    C    0.82091010    0.57211057    0.07629003    -0.23330000
opls_145-74    C    0.51800998    0.42891063    0.92398991    -0.11660000
opls_145-75    C    0.56678001    0.34617015    0.94952998    -0.11520000
opls_145-76    C    0.56986999    0.23839929    0.99596986    -0.16220000
opls_145-77    C    0.52443011    0.21647992    0.01700984    -0.23070000
opls_145-78    C    0.47565041    0.30283978    0.99337018    0.12530000
opls_145-79    C    0.47280004    0.40728027    0.94604999    -0.19540000
opls_145-80    C    0.35867992    0.30491033    0.08346999    -0.20010000
opls_145-81    C    0.34635985    0.32646065    0.02871987    0.12290000
opls_145-82    C    0.31844017    0.30540981    0.11234989    -0.16220000
opls_145-83    C    0.26536995    0.32979991    0.08686005    -0.19660000
opls_700-84    C    0.25106979    0.35530013    0.03200986    -0.07390000
opls_145-85    C    0.29272008    0.35144064    0.00371983    -0.23300000
opls_750-86    N    0.69890025    0.57985030    0.51388999    -0.39490000
opls_750-87    N    0.05041009    0.46409071    0.17892996    -0.38660000
opls_750-88    N    0.41283033    0.49678968    0.55276017    -0.40820000
opls_750-89    N    0.06434032    0.56459019    0.89050014    -0.38920000
opls_542-90    N    0.10872993    0.51796947    0.48185015    -0.37130000
opls_542-91    N    0.00300020    0.52546020    0.58667005    -0.37120000
opls_542-92    N    0.99242005    0.52123018    0.46685013    -0.36200000
opls_542-93    N    0.11934016    0.52259967    0.60165995    -0.34890000
opls_750-94    N    0.68168987    0.59875056    0.08275009    -0.14450000
opls_750-95    N    0.73279008    0.56994071    0.09054990    -0.14410000
opls_750-96    N    0.43420982    0.28587965    0.01755999    -0.14470000
opls_750-97    N    0.38461982    0.33202016    0.00008994    -0.14450000
opls_547-98    H    0.14774995    0.51432933    0.37379983    0.20470000
opls_547-99    H    0.88904002    0.54666963    0.61566012    0.20480000
opls_547-100    H    0.96442011    0.54294946    0.69490997    0.20470000
opls_547-101    H    0.22278003    0.51607974    0.45280011    0.20470000
opls_547-102    H    0.93538004    0.49780050    0.34712015    0.20470000
opls_547-103    H    0.87115027    0.50590929    0.40987021    0.20470000
opls_547-104    H    0.17643031    0.52820068    0.72154995    0.20470000
opls_547-105    H    0.24064009    0.52567067    0.65886997    0.20470000
opls_146-106    H    0.06033994    0.19622054    0.33779020    0.20490000
opls_146-107    H    0.02147992    0.80232992    0.32260018    0.20480000
opls_146-108    H    0.85339012    0.83574033    0.49271997    0.20470000
opls_146-109    H    0.85318998    0.22744034    0.52922018    0.20480000
opls_146-110    H    0.07886009    0.22452053    0.74210986    0.20480000
opls_146-111    H    0.06354014    0.84586928    0.73447007    0.20480000
opls_146-112    H    0.25658026    0.82993034    0.54327993    0.20470000
opls_146-113    H    0.26027030    0.21572995    0.57196009    0.20470000
opls_146-114    H    0.06437997    0.18315992    0.24698995    0.20480000
opls_146-115    H    0.02409003    0.78634949    0.23124004    0.20470000
opls_146-116    H    0.75998027    0.85149993    0.49230999    0.20480000
opls_146-117    H    0.76028004    0.24523047    0.52928988    0.20470000
opls_146-118    H    0.07733034    0.23524974    0.83367012    0.20470000
opls_146-119    H    0.06048002    0.85388024    0.82553002    0.20470000
opls_146-120    H    0.34926027    0.82378983    0.54222012    0.20480000
opls_146-121    H    0.35354019    0.21113977    0.57165017    0.20470000
opls_146-122    H    0.11975991    0.44266044    0.11152992    0.20470000
opls_146-123    H    0.59269025    0.22034979    0.56114010    0.20470000
opls_146-124    H    0.60670992    0.79523937    0.50029006    0.20470000
opls_144-125    H    0.43295023    0.76401956    0.52465002    0.09990000
opls_144-126    H    0.09184017    0.30240996    0.92629018    0.09970000
opls_146-127    H    0.98872006    0.56983993    0.95602002    0.20470000
opls_146-128    H    0.51729999    0.86211946    0.50507009    0.20480000
opls_146-129    H    0.50278003    0.29029939    0.56532988    0.20480000
opls_144-130    H    0.00432012    0.68186009    0.13778016    0.09940000
opls_146-131    H    0.65256021    0.26962057    0.22551001    0.20470000
opls_146-132    H    0.55842012    0.34574033    0.20375012    0.20470000
opls_146-133    H    0.52271988    0.54464058    0.12831004    0.20480000
opls_146-134    H    0.77752004    0.88187046    0.95249019    0.20480000
opls_146-135    H    0.86851996    0.77937009    0.97827010    0.20470000
opls_146-136    H    0.83169006    0.48938936    0.10955008    0.20480000
opls_146-137    H    0.51580028    0.50500074    0.88958985    0.20470000
opls_146-138    H    0.59979010    0.36307989    0.93379019    0.20480000
opls_146-139    H    0.60505019    0.17562028    0.01391024    0.20480000
opls_146-140    H    0.32783015    0.28915963    0.15192984    0.20470000
opls_146-141    H    0.23702002    0.32994071    0.10908988    0.20470000
opls_146-142    H    0.28422981    0.36876982    0.96397985    0.20470000
opls_146-143    H    0.43755025    0.46862013    0.92752013    0.20470000
opls_146-144    H    0.71304010    0.78760931    0.00400990    0.20480000
opls_146-145    H    0.70975987    0.38516971    0.16923013    0.20480000
opls_146-146    H    0.39748984    0.29061953    0.10249004    0.20470000
opls_545-147    H    0.07995027    0.51796947    0.50807002    0.20020000
opls_545-148    H    0.03208020    0.52546020    0.56077996    0.20190000
opls_146-149    H    0.57969988    0.66160960    0.07186002    0.20470000
opls_146-150    H    0.52960007    0.13870016    0.05092011    0.20490000
opls_473-151    O    0.94990018    0.60958055    0.03280997    -0.27500000
opls_466-152    O    0.92578009    0.43772047    0.09800007    -0.58780000
opls_473-153    O    0.15928993    0.40310064    0.03665985    -0.27500000
opls_466-154    O    0.18542033    0.40737068    0.95891989    -0.60450000
