#======================================================================
# Crystal Data Generated By AuToFF
#----------------------------------------------------------------------

data_AuToFF_phase_1

_cell_length_a                         40.2092
_cell_length_b                         62.6350
_cell_length_c                         7.1413
_cell_angle_alpha                      90.00
_cell_angle_beta                       86.53
_cell_angle_gamma                      90.00
_symmetry_space_group_name_H-M_alt     'P 1'
_symmetry_space_group_IT_number        1

loop_
_space_group_symop_operation_xyz
   'x, y, z'

loop_
   _atom_site_label
   _atom_site_type_symbol
   _atom_site_fract_x
   _atom_site_fract_y
   _atom_site_fract_z
   _atom_site_charge
opls_145-0    C    0.89132000    0.98628004    0.87614983    -0.07700000
opls_145-1    C    0.87807983    0.96845997    0.79958924    -0.07950000
opls_700-2    C    0.89604004    0.95691993    0.65149035    0.06890000
opls_145-3    C    0.92801997    0.96433001    0.58162989    -0.07950000
opls_145-4    C    0.94164983    0.98212006    0.65779908    -0.07950000
opls_700-5    C    0.92348983    0.99305995    0.80747902    0.07320000
opls_142-6    C    0.88217993    0.93804007    0.57385936    0.01640000
opls_145-7    C    0.81749005    0.90308997    0.78701946    -0.13480000
opls_145-8    C    0.83817996    0.90187994    0.45706005    -0.13480000
opls_145-9    C    0.83718990    0.91204997    0.63255993    0.23400000
opls_700-10    C    0.98241996    0.99200000    0.01057068    0.03400000
opls_141-11    C    0.93726001    0.01274000    0.88597979    -0.00200000
opls_145-12    C    0.94235993    0.04143003    0.64183014    -0.07940000
opls_145-13    C    0.92973005    0.05907001    0.55846980    -0.07940000
opls_700-14    C    0.89923003    0.06820005    0.63410029    0.08010000
opls_145-15    C    0.88198980    0.05905995    0.79689010    -0.07950000
opls_145-16    C    0.89404991    0.04124004    0.87957987    -0.07940000
opls_700-17    C    0.92460005    0.03245997    0.80321988    0.07420000
opls_142-18    C    0.88415984    0.08652000    0.55689998    0.01610000
opls_145-19    C    0.88342984    0.13171996    0.41323979    -0.15300000
opls_145-20    C    0.84376006    0.10809005    0.29169034    -0.14760000
opls_145-21    C    0.87501987    0.11124994    0.35481979    0.26230000
opls_145-22    C    0.39520992    0.48061994    0.84376021    -0.07960000
opls_145-23    C    0.38048982    0.46223006    0.78576950    -0.07930000
opls_700-24    C    0.39630003    0.44954003    0.63928953    0.07030000
opls_145-25    C    0.42763989    0.45628004    0.55132916    -0.07910000
opls_145-26    C    0.44262995    0.47464996    0.60836030    -0.07960000
opls_700-27    C    0.42674983    0.48681999    0.75724901    0.07490000
opls_145-28    C    0.45971985    0.53897996    0.61205969    -0.10930000
opls_145-29    C    0.45222993    0.55598004    0.50115948    -0.13690000
opls_700-30    C    0.41925988    0.56017993    0.46759004    0.07770000
opls_145-31    C    0.39423983    0.54636002    0.55112013    -0.10920000
opls_145-32    C    0.40146000    0.52966999    0.66582915    -0.13410000
opls_700-33    C    0.43441993    0.52584992    0.70084916    0.08360000
opls_142-34    C    0.41199003    0.57804007    0.35083983    0.08420000
opls_142-35    C    0.37949982    0.43034996    0.58870039    0.01640000
opls_145-36    C    0.37324989    0.61730007    0.32944035    -0.15990000
opls_145-37    C    0.33197999    0.59478997    0.22995956    -0.16100000
opls_145-38    C    0.36298008    0.59735994    0.28314963    0.26160000
opls_145-39    C    0.35345997    0.39618999    0.30881947    -0.13710000
opls_145-40    C    0.38083992    0.38144999    0.56109037    -0.13660000
opls_145-41    C    0.37655995    0.39852000    0.43918038    0.26230000
opls_145-42    C    0.53399993    0.50710992    0.05681931    -0.02390000
opls_700-43    C    0.51731009    0.48642005    0.00753064    0.03740000
opls_141-44    C    0.44244982    0.50689998    0.81745908    -0.02310000
opls_145-45    C    0.03576993    0.01274000    0.01357985    -0.02320000
opls_145-46    C    0.81981992    0.69995993    0.89051950    -0.09200000
opls_145-47    C    0.85395005    0.69655001    0.85723905    -0.10920000
opls_700-48    C    0.87618000    0.70546005    0.97337901    0.06580000
opls_145-49    C    0.86210995    0.71708997    0.13137941    -0.09340000
opls_145-50    C    0.82797992    0.71992001    0.16966952    -0.10560000
opls_145-51    C    0.80636009    0.71209005    0.04595964    0.08300000
opls_145-52    C    0.73345008    0.68400000    0.19271037    -0.07500000
opls_145-53    C    0.71571988    0.67255001    0.33725017    -0.08100000
opls_700-54    C    0.71648998    0.67828993    0.52698924    0.06340000
opls_145-55    C    0.73767005    0.69505995    0.56586997    -0.09220000
opls_145-56    C    0.75613007    0.70618999    0.42316935    -0.10970000
opls_700-57    C    0.75290999    0.70159001    0.23465919    0.08330000
opls_142-58    C    0.69627984    0.66809005    0.68169989    0.01590000
opls_142-59    C    0.91192004    0.70226998    0.93224947    0.09970000
opls_145-60    C    0.64772998    0.63429999    0.67422958    -0.16060000
opls_145-61    C    0.68906992    0.61171007    0.77165936    -0.16060000
opls_145-62    C    0.67921984    0.63154993    0.72229915    0.26130000
opls_145-63    C    0.98336981    0.69801006    0.99016022    -0.13880000
opls_145-64    C    0.98333998    0.73554003    0.99237957    -0.13850000
opls_145-65    C    0.96636996    0.71681999    0.98217926    0.25880000
opls_145-66    C    0.71334995    0.75132993    0.70384991    -0.04900000
opls_700-67    C    0.75103000    0.75130007    0.68014972    0.03400000
opls_700-68    C    0.76921993    0.74349996    0.82263009    0.03800000
opls_700-69    C    0.76936006    0.71592001    0.08364933    -0.05050000
opls_145-70    C    0.33608002    0.19886996    0.87030966    -0.10970000
opls_145-71    C    0.37026995    0.20155999    0.85059924    -0.09360000
opls_700-72    C    0.38496998    0.22196998    0.82936951    0.06650000
opls_145-73    C    0.36335986    0.23954993    0.82359947    -0.07490000
opls_145-74    C    0.32901981    0.23710002    0.84889895    -0.09350000
opls_700-75    C    0.31487985    0.21667007    0.87477922    0.08180000
opls_145-76    C    0.23401002    0.21751002    0.17204039    -0.07890000
opls_145-77    C    0.21293988    0.20825002    0.31471996    -0.07930000
opls_700-78    C    0.21952995    0.18782997    0.38226988    0.06890000
opls_145-79    C    0.25006994    0.17809005    0.31522921    -0.07890000
opls_145-80    C    0.27067993    0.18686996    0.16683992    -0.07910000
opls_700-81    C    0.26153009    0.20606993    0.08502976    0.07560000
opls_142-82    C    0.19406994    0.17782997    0.51110026    0.01640000
opls_142-83    C    0.42076001    0.22507001    0.81472908    0.03470000
opls_145-84    C    0.14005997    0.14787004    0.57217029    -0.15550000
opls_145-85    C    0.17965996    0.12431005    0.69398909    -0.14770000
opls_145-86    C    0.17268002    0.14415008    0.61632023    0.25610000
opls_145-87    C    0.48525996    0.19124994    0.96295003    -0.16080000
opls_145-88    C    0.48515981    0.22886006    0.96365988    -0.16100000
opls_145-89    C    0.47016994    0.21001006    0.92585937    0.26000000
opls_700-90    C    0.21618997    0.25102994    0.63431913    -0.00360000
opls_700-91    C    0.25029000    0.24743003    0.52531982    0.02120000
opls_700-92    C    0.27086997    0.23132993    0.58700992    0.04430000
opls_141-93    C    0.27773993    0.21368995    0.89748899    -0.02330000
opls_145-94    C    0.78466004    0.30283005    0.54770973    -0.09910000
opls_145-95    C    0.76336985    0.31902004    0.61808925    -0.10590000
opls_700-96    C    0.73351000    0.32335004    0.54169981    0.07160000
opls_145-97    C    0.72618007    0.31074000    0.38891952    -0.10120000
opls_145-98    C    0.74718998    0.29455001    0.31729003    -0.10510000
opls_145-99    C    0.77650007    0.29025002    0.39737045    0.09260000
opls_145-100    C    0.85154990    0.29047992    0.25395015    -0.08100000
opls_145-101    C    0.88050988    0.29478008    0.13687027    -0.07930000
opls_700-102    C    0.88794988    0.28450004    0.96197923    0.06890000
opls_145-103    C    0.86417985    0.26993997    0.90944992    -0.07940000
opls_145-104    C    0.83488004    0.26574998    0.02478041    -0.07960000
opls_700-105    C    0.82833002    0.27563008    0.20157936    0.07570000
opls_142-106    C    0.91875986    0.28842995    0.84034982    0.01590000
opls_142-107    C    0.71134001    0.34012006    0.61982040    0.08370000
opls_145-108    C    0.98466002    0.28489998    0.96887999    -0.16060000
opls_145-109    C    0.98471991    0.32255001    0.96869901    -0.16100000
opls_145-110    C    0.96908992    0.30376994    0.93711886    0.26130000
opls_145-111    C    0.66602990    0.37798004    0.69223971    -0.14370000
opls_145-112    C    0.63854988    0.36324994    0.44044017    -0.13580000
opls_145-113    C    0.66305001    0.36135004    0.56302915    0.26200000
opls_145-114    C    0.74208008    0.21915000    0.23868966    -0.02420000
opls_700-115    C    0.79679996    0.27113994    0.33076046    -0.00370000
opls_145-116    C    0.28674004    0.79905005    0.59139952    -0.09910000
opls_145-117    C    0.26917997    0.81778000    0.63469931    -0.10120000
opls_700-118    C    0.24909002    0.82697006    0.50833940    0.07190000
opls_145-119    C    0.24748986    0.81645007    0.33570981    -0.09910000
opls_145-120    C    0.26481989    0.79781001    0.29123020    -0.10550000
opls_145-121    C    0.28420008    0.78866001    0.42003953    0.08150000
opls_145-122    C    0.35532988    0.76332003    0.51652940    -0.10770000
opls_145-123    C    0.38872985    0.76740002    0.52718004    -0.07630000
opls_700-124    C    0.40759003    0.78026998    0.39296962    0.07770000
opls_145-125    C    0.39135000    0.78796998    0.24215055    -0.13690000
opls_145-126    C    0.35816002    0.78346005    0.22778930    -0.13690000
opls_145-127    C    0.33972988    0.77100998    0.36556022    0.08310000
opls_142-128    C    0.44198001    0.78538006    0.41604975    0.08400000
opls_142-129    C    0.23098989    0.84667007    0.55135020    0.08340000
opls_145-130    C    0.48918991    0.78222000    0.08028944    -0.13620000
opls_145-131    C    0.48923005    0.81982007    0.08064998    -0.14000000
opls_145-132    C    0.47829000    0.80103999    0.16247978    0.26070000
opls_145-133    C    0.20027003    0.88453006    0.23176927    -0.13470000
opls_145-134    C    0.17999995    0.88338006    0.56235016    -0.11500000
opls_145-135    C    0.19949987    0.87436992    0.40650037    0.23190000
opls_700-136    C    0.24830995    0.73028993    0.01555931    -0.02700000
opls_141-137    C    0.30284994    0.76839994    0.36751022    -0.02320000
opls_700-138    C    0.98243001    0.03349996    0.00996042    0.03400000
opls_700-139    C    0.48297984    0.52782007    0.98595019    0.04060000
opls_700-140    C    0.71322994    0.73012996    0.00398978    0.03070000
opls_700-141    C    0.69586001    0.73694995    0.85333906    0.04010000
opls_700-142    C    0.22049993    0.21554993    0.78686935    0.03410000
opls_700-143    C    0.19977989    0.23127006    0.72131994    0.03990000
opls_145-144    C    0.76765991    0.75965004    0.51557965    -0.08020000
opls_700-145    C    0.80221993    0.76338996    0.49477919    0.09350000
opls_700-146    C    0.82041994    0.75787004    0.64832966    0.08420000
opls_145-147    C    0.80307989    0.74833001    0.80937009    -0.08160000
opls_145-148    C    0.69431008    0.72321992    0.16748945    -0.08170000
opls_700-149    C    0.65985999    0.71900008    0.17604981    0.08430000
opls_700-150    C    0.64350001    0.72302004    0.01225974    0.09500000
opls_145-151    C    0.66223996    0.73223996    0.85460024    -0.08010000
opls_145-152    C    0.85540996    0.76143993    0.62877917    -0.07710000
opls_145-153    C    0.87151008    0.77028993    0.46557972    -0.10020000
opls_145-154    C    0.85358002    0.77598994    0.31734054    -0.10580000
opls_145-155    C    0.81945986    0.77275006    0.33093021    -0.07510000
opls_145-156    C    0.60861995    0.71944999    0.02185963    -0.07710000
opls_145-157    C    0.59066990    0.71233001    0.18691930    -0.10130000
opls_145-158    C    0.60668005    0.70820995    0.34625944    -0.10530000
opls_145-159    C    0.64071999    0.71130997    0.34145038    -0.07720000
opls_145-160    C    0.26174990    0.25941007    0.36794932    -0.04640000
opls_700-161    C    0.29546995    0.25847002    0.29040951    0.08250000
opls_700-162    C    0.31631988    0.24184003    0.35326961    0.07710000
opls_145-163    C    0.30210995    0.22738996    0.49068981    -0.05450000
opls_145-164    C    0.35144010    0.24343003    0.30781921    -0.07950000
opls_145-165    C    0.36554989    0.26129001    0.21591956    -0.07820000
opls_145-166    C    0.34536000    0.27746005    0.15542051    -0.08170000
opls_145-167    C    0.31093995    0.27587004    0.18658962    -0.07940000
opls_145-168    C    0.20647999    0.19721003    0.87084976    -0.08080000
opls_700-169    C    0.17154980    0.19440999    0.90008010    0.08260000
opls_700-170    C    0.15051004    0.21009994    0.82461936    0.08090000
opls_145-171    C    0.16557997    0.22831995    0.73488015    -0.08020000
opls_145-172    C    0.11579985    0.20590006    0.83276026    -0.09350000
opls_145-173    C    0.10245990    0.18719007    0.91261902    -0.10570000
opls_145-174    C    0.12275990    0.17226998    0.98998907    -0.06340000
opls_145-175    C    0.15663980    0.17582007    0.98650994    -0.09210000
opls_700-176    C    0.48207999    0.44744999    0.01057068    0.08330000
opls_145-177    C    0.46541006    0.46721003    0.00998007    -0.08170000
opls_145-178    C    0.46496003    0.42763008    0.02192977    -0.07700000
opls_145-179    C    0.48253010    0.40859998    0.01106028    -0.07900000
opls_700-180    C    0.51765010    0.56680003    0.00650935    0.09050000
opls_145-181    C    0.53428989    0.54702994    0.00958025    -0.08020000
opls_145-182    C    0.46601002    0.58664006    0.97563905    -0.07670000
opls_145-183    C    0.48312001    0.60568005    0.98626023    -0.06700000
opls_145-184    C    0.96530995    0.97286996    0.04133997    -0.04660000
opls_700-185    C    0.01781001    0.95310992    0.97439890    0.07440000
opls_145-186    C    0.96524995    0.93329001    0.05015986    -0.07960000
opls_145-187    C    0.98269002    0.91426998    0.02494034    -0.07850000
opls_700-188    C    0.01780997    0.07244001    0.97555908    0.07710000
opls_145-189    C    0.03462990    0.05266001    0.95985949    -0.04660000
opls_145-190    C    0.96522012    0.09228004    0.04655026    -0.07960000
opls_145-191    C    0.98265001    0.11132003    0.02310959    -0.07840000
opls_145-192    C    0.10868000    0.98628004    0.12385017    -0.07700000
opls_145-193    C    0.12191994    0.96845997    0.20040936    -0.07950000
opls_700-194    C    0.10395996    0.95691993    0.34850965    0.06890000
opls_145-195    C    0.07198003    0.96433001    0.41837011    -0.07950000
opls_145-196    C    0.05834994    0.98212006    0.34219951    -0.07950000
opls_700-197    C    0.07650994    0.99305995    0.19251958    0.07320000
opls_142-198    C    0.11782008    0.93804007    0.42613924    0.01640000
opls_145-199    C    0.18250995    0.90308997    0.21298054    -0.13480000
opls_145-200    C    0.16182004    0.90187994    0.54293995    -0.13480000
opls_145-201    C    0.16280986    0.91204997    0.36744007    0.23400000
opls_700-202    C    0.01758004    0.99200000    0.98942932    0.03400000
opls_141-203    C    0.06273999    0.01274000    0.11402021    -0.00200000
opls_145-204    C    0.05764007    0.04143003    0.35816986    -0.07950000
opls_145-205    C    0.07026995    0.05907001    0.44153020    -0.07950000
opls_700-206    C    0.10076997    0.06820005    0.36589971    0.08010000
opls_145-207    C    0.11800995    0.05905995    0.20310990    -0.07950000
opls_145-208    C    0.10595009    0.04124004    0.12042013    -0.07940000
opls_700-209    C    0.07539995    0.03245997    0.19678012    0.07420000
opls_142-210    C    0.11583991    0.08652000    0.44310002    0.01610000
opls_145-211    C    0.11656991    0.13171996    0.58676021    -0.15300000
opls_145-212    C    0.15623994    0.10809005    0.70830966    -0.14760000
opls_145-213    C    0.12497988    0.11124994    0.64518021    0.26240000
opls_145-214    C    0.60479008    0.48061994    0.15623979    -0.07960000
opls_145-215    C    0.61950993    0.46223006    0.21423050    -0.07930000
opls_700-216    C    0.60369997    0.44954003    0.36071047    0.07030000
opls_145-217    C    0.57235987    0.45628004    0.44866944    -0.07910000
opls_145-218    C    0.55737005    0.47464996    0.39163970    -0.07960000
opls_700-219    C    0.57324994    0.48681999    0.24274958    0.07490000
opls_145-220    C    0.54027991    0.53897996    0.38794031    -0.10930000
opls_145-221    C    0.54777008    0.55598004    0.49883912    -0.13690000
opls_700-222    C    0.58073988    0.56017993    0.53240996    0.07770000
opls_145-223    C    0.60575992    0.54636002    0.44887987    -0.10920000
opls_145-224    C    0.59854002    0.52966999    0.33416945    -0.13410000
opls_700-225    C    0.56558008    0.52584992    0.29914944    0.08370000
opls_142-226    C    0.58800997    0.57804007    0.64916017    0.08420000
opls_142-227    C    0.62049993    0.43034996    0.41129961    0.01640000
opls_145-228    C    0.62674986    0.61730007    0.67055965    -0.15990000
opls_145-229    C    0.66802002    0.59478997    0.77003904    -0.16100000
opls_145-230    C    0.63701994    0.59735994    0.71684897    0.26160000
opls_145-231    C    0.64654004    0.39618999    0.69117913    -0.13720000
opls_145-232    C    0.61916008    0.38144999    0.43890963    -0.13660000
opls_145-233    C    0.62344005    0.39852000    0.56081962    0.26230000
opls_145-234    C    0.46599984    0.50710992    0.94317928    -0.02390000
opls_700-235    C    0.48268991    0.48642005    0.99246936    0.03740000
opls_141-236    C    0.55754995    0.50689998    0.18253952    -0.02310000
opls_145-237    C    0.96422983    0.01274000    0.98642015    -0.02320000
opls_145-238    C    0.18018008    0.69995993    0.10948050    -0.09200000
opls_145-239    C    0.14604996    0.69655001    0.14275954    -0.10920000
opls_700-240    C    0.12382001    0.70546005    0.02661959    0.06580000
opls_145-241    C    0.13788982    0.71708997    0.86861919    -0.09340000
opls_145-242    C    0.17201984    0.71992001    0.83032907    -0.10560000
opls_145-243    C    0.19363993    0.71209005    0.95403895    0.08300000
opls_145-244    C    0.26654992    0.68400000    0.80728963    -0.07500000
opls_145-245    C    0.28427988    0.67255001    0.66274983    -0.08100000
opls_700-246    C    0.28351004    0.67828993    0.47300935    0.06340000
opls_145-247    C    0.26232995    0.69505995    0.43413003    -0.09210000
opls_145-248    C    0.24386995    0.70618999    0.57682925    -0.10970000
opls_700-249    C    0.24709002    0.70159001    0.76533940    0.08330000
opls_142-250    C    0.30371991    0.66809005    0.31830011    0.01590000
opls_142-251    C    0.08807996    0.70226998    0.06775053    0.09970000
opls_145-252    C    0.35227002    0.63429999    0.32577042    -0.16060000
opls_145-253    C    0.31093009    0.61171007    0.22833923    -0.16060000
opls_145-254    C    0.32077993    0.63154993    0.27769945    0.26140000
opls_145-255    C    0.01662994    0.69801006    0.00983978    -0.13880000
opls_145-256    C    0.01666002    0.73554003    0.00762043    -0.13860000
opls_145-257    C    0.03363005    0.71681999    0.01781934    0.25880000
opls_145-258    C    0.28665005    0.75132993    0.29615009    -0.04900000
opls_700-259    C    0.24897000    0.75130007    0.31985028    0.03400000
opls_700-260    C    0.23078007    0.74349996    0.17736991    0.03800000
opls_700-261    C    0.23063995    0.71592001    0.91634927    -0.05050000
opls_145-262    C    0.66391998    0.19886996    0.12969034    -0.10970000
opls_145-263    C    0.62973006    0.20155999    0.14939936    -0.09350000
opls_700-264    C    0.61503002    0.22196998    0.17063049    0.06650000
opls_145-265    C    0.63663990    0.23954993    0.17640053    -0.07490000
opls_145-266    C    0.67097995    0.23710002    0.15109964    -0.09350000
opls_700-267    C    0.68511992    0.21667007    0.12521937    0.08190000
opls_145-268    C    0.76598998    0.21751002    0.82795961    -0.07890000
opls_145-269    C    0.78705987    0.20825002    0.68528004    -0.07930000
opls_700-270    C    0.78047005    0.18782997    0.61773012    0.06890000
opls_145-271    C    0.74992983    0.17809005    0.68476939    -0.07890000
opls_145-272    C    0.72931982    0.18686996    0.83316008    -0.07910000
opls_700-273    C    0.73846991    0.20606993    0.91497024    0.07550000
opls_142-274    C    0.80593006    0.17782997    0.48889974    0.01640000
opls_142-275    C    0.57924001    0.22507001    0.18526951    0.03470000
opls_145-276    C    0.85994003    0.14787004    0.42782971    -0.15550000
opls_145-277    C    0.82034006    0.12431005    0.30600950    -0.14770000
opls_145-278    C    0.82731998    0.14415008    0.38367977    0.25610000
opls_145-279    C    0.51474004    0.19124994    0.03704997    -0.16080000
opls_145-280    C    0.51483994    0.22886006    0.03634012    -0.16100000
opls_145-281    C    0.52983006    0.21001006    0.07414063    0.26000000
opls_700-282    C    0.78381005    0.25102994    0.36567946    -0.00360000
opls_700-283    C    0.74971000    0.24743003    0.47468018    0.02120000
opls_700-284    C    0.72913003    0.23132993    0.41299008    0.04430000
opls_141-285    C    0.72226009    0.21368995    0.10250961    -0.02330000
opls_145-286    C    0.21533996    0.30283005    0.45229027    -0.09910000
opls_145-287    C    0.23662992    0.31902004    0.38190934    -0.10590000
opls_700-288    C    0.26649000    0.32335004    0.45830019    0.07160000
opls_145-289    C    0.27381995    0.31074000    0.61107908    -0.10120000
opls_145-290    C    0.25281002    0.29455001    0.68270997    -0.10510000
opls_145-291    C    0.22349993    0.29025002    0.60262955    0.09260000
opls_145-292    C    0.14844986    0.29047992    0.74604985    -0.08100000
opls_145-293    C    0.11948987    0.29478008    0.86312973    -0.07930000
opls_700-294    C    0.11204988    0.28450004    0.03801936    0.06890000
opls_145-295    C    0.13581991    0.26993997    0.09055008    -0.07940000
opls_145-296    C    0.16511996    0.26574998    0.97521959    -0.07960000
opls_700-297    C    0.17167000    0.27563008    0.79841924    0.07570000
opls_142-298    C    0.08123990    0.28842995    0.15965018    0.01590000
opls_142-299    C    0.28865999    0.34012006    0.38017960    0.08370000
opls_145-300    C    0.01533998    0.28489998    0.03112001    -0.16060000
opls_145-301    C    0.01528010    0.32255001    0.03129958    -0.16100000
opls_145-302    C    0.03091010    0.30376994    0.06287974    0.26140000
opls_145-303    C    0.33396985    0.37798004    0.30776029    -0.14370000
opls_145-304    C    0.36144987    0.36324994    0.55955983    -0.13570000
opls_145-305    C    0.33695000    0.36135004    0.43696945    0.26200000
opls_145-306    C    0.25791993    0.21915000    0.76130894    -0.02420000
opls_700-307    C    0.20320004    0.27113994    0.66923954    -0.00370000
opls_145-308    C    0.71325996    0.79905005    0.40860048    -0.09910000
opls_145-309    C    0.73082005    0.81778000    0.36529928    -0.10120000
opls_700-310    C    0.75091000    0.82697006    0.49165920    0.07190000
opls_145-311    C    0.75250989    0.81645007    0.66429019    -0.10120000
opls_145-312    C    0.73517987    0.79781001    0.70876980    -0.10550000
opls_145-313    C    0.71579993    0.78866001    0.57995906    0.08160000
opls_145-314    C    0.64466989    0.76332003    0.48346920    -0.10770000
opls_145-315    C    0.61126990    0.76740002    0.47281996    -0.07620000
opls_700-316    C    0.59240997    0.78026998    0.60703038    0.07770000
opls_145-317    C    0.60865000    0.78796998    0.75784945    -0.13690000
opls_145-318    C    0.64183999    0.78346005    0.77220929    -0.13690000
opls_145-319    C    0.66026987    0.77100998    0.63443978    0.08310000
opls_142-320    C    0.55801999    0.78538006    0.58395025    0.08400000
opls_142-321    C    0.76900986    0.84667007    0.44864980    0.08320000
opls_145-322    C    0.51080986    0.78222000    0.91970916    -0.13620000
opls_145-323    C    0.51076995    0.81982007    0.91935002    -0.14000000
opls_145-324    C    0.52171000    0.80103999    0.83752022    0.26090000
opls_145-325    C    0.79972998    0.88453006    0.76822933    -0.13470000
opls_145-326    C    0.82000005    0.88338006    0.43764984    -0.11500000
opls_145-327    C    0.80049988    0.87436992    0.59349963    0.23190000
opls_700-328    C    0.75168982    0.73028993    0.98443929    -0.02700000
opls_141-329    C    0.69715006    0.76839994    0.63248978    -0.02320000
opls_700-330    C    0.01756999    0.03349996    0.99003958    0.03400000
opls_700-331    C    0.51701991    0.52782007    0.01404981    0.04060000
opls_700-332    C    0.28676981    0.73012996    0.99601022    0.03070000
opls_700-333    C    0.30414001    0.73694995    0.14665954    0.04010000
opls_700-334    C    0.77950009    0.21554993    0.21312924    0.03410000
opls_700-335    C    0.80021986    0.23127006    0.27868006    0.03990000
opls_145-336    C    0.23233985    0.75965004    0.48442035    -0.08020000
opls_700-337    C    0.19777983    0.76338996    0.50521940    0.09350000
opls_700-338    C    0.17958006    0.75787004    0.35167034    0.08420000
opls_145-339    C    0.19691986    0.74833001    0.19062991    -0.08160000
opls_145-340    C    0.30568994    0.72321992    0.83250914    -0.08170000
opls_700-341    C    0.34014001    0.71900008    0.82395019    0.08420000
opls_700-342    C    0.35650000    0.72302004    0.98773886    0.09500000
opls_145-343    C    0.33776004    0.73223996    0.14539976    -0.08010000
opls_145-344    C    0.14459005    0.76143993    0.37121942    -0.07710000
opls_145-345    C    0.12848992    0.77028993    0.53442028    -0.10020000
opls_145-346    C    0.14641998    0.77598994    0.68265946    -0.10580000
opls_145-347    C    0.18053989    0.77275006    0.66906979    -0.07510000
opls_145-348    C    0.39137982    0.71944999    0.97813897    -0.07700000
opls_145-349    C    0.40932987    0.71233001    0.81307930    -0.10130000
opls_145-350    C    0.39331997    0.70820995    0.65373916    -0.10530000
opls_145-351    C    0.35928001    0.71130997    0.65854962    -0.07720000
opls_145-352    C    0.73824987    0.25941007    0.63204928    -0.04640000
opls_700-353    C    0.70453006    0.25847002    0.70958908    0.08250000
opls_700-354    C    0.68367987    0.24184003    0.64673039    0.07720000
opls_145-355    C    0.69789005    0.22738996    0.50931019    -0.05450000
opls_145-356    C    0.64855992    0.24343003    0.69217938    -0.07950000
opls_145-357    C    0.63444987    0.26129001    0.78407903    -0.07820000
opls_145-358    C    0.65464000    0.27746005    0.84457949    -0.08160000
opls_145-359    C    0.68905982    0.27587004    0.81340898    -0.07930000
opls_145-360    C    0.79352001    0.19721003    0.12915024    -0.08080000
opls_700-361    C    0.82844995    0.19440999    0.09991990    0.08260000
opls_700-362    C    0.84948998    0.21009994    0.17537923    0.08090000
opls_145-363    C    0.83442003    0.22831995    0.26511985    -0.08020000
opls_145-364    C    0.88419990    0.20590006    0.16723974    -0.09350000
opls_145-365    C    0.89754012    0.18719007    0.08737958    -0.10570000
opls_145-366    C    0.87724012    0.17226998    0.01000953    -0.06340000
opls_145-367    C    0.84335995    0.17582007    0.01349006    -0.09210000
opls_700-368    C    0.51792001    0.44744999    0.98942932    0.08330000
opls_145-369    C    0.53458994    0.46721003    0.99001993    -0.08170000
opls_145-370    C    0.53503997    0.42763008    0.97807023    -0.07700000
opls_145-371    C    0.51746990    0.40859998    0.98893972    -0.07900000
opls_700-372    C    0.48234992    0.56680003    0.99348925    0.09050000
opls_145-373    C    0.46570986    0.54702994    0.99041975    -0.08010000
opls_145-374    C    0.53399000    0.58664006    0.02435955    -0.07670000
opls_145-375    C    0.51687999    0.60568005    0.01373977    -0.06700000
opls_145-376    C    0.03468980    0.97286996    0.95866003    -0.04660000
opls_700-377    C    0.98219001    0.95310992    0.02559969    0.07440000
opls_145-378    C    0.03474980    0.93329001    0.94984014    -0.07950000
opls_145-379    C    0.01730998    0.91426998    0.97505966    -0.07850000
opls_700-380    C    0.98219005    0.07244001    0.02443952    0.07710000
opls_145-381    C    0.96537010    0.05266001    0.04014051    -0.04660000
opls_145-382    C    0.03477988    0.09228004    0.95344974    -0.07960000
opls_145-383    C    0.01735000    0.11132003    0.97688901    -0.07840000
opls_750-384    N    0.85480993    0.93066001    0.66196984    -0.23400000
opls_750-385    N    0.89471997    0.09378000    0.39068995    -0.24330000
opls_750-386    N    0.38273999    0.57896001    0.29436983    -0.21560000
opls_750-387    N    0.39321993    0.41787004    0.45709933    -0.24160000
opls_750-388    N    0.70247991    0.64840999    0.71940922    -0.24480000
opls_750-389    N    0.93178992    0.71785998    0.96349995    -0.24220000
opls_750-390    N    0.19873986    0.15869993    0.57033954    -0.24330000
opls_750-391    N    0.43920987    0.20905005    0.85279895    -0.17510000
opls_750-392    N    0.93703989    0.30467007    0.87527023    -0.21910000
opls_750-393    N    0.68419002    0.34352998    0.54476930    -0.18280000
opls_750-394    N    0.45559007    0.80184003    0.32829981    -0.26530000
opls_750-395    N    0.21773992    0.85554993    0.41532026    -0.16160000
opls_750-396    N    0.14519007    0.93066001    0.33803016    -0.23400000
opls_750-397    N    0.10528003    0.09378000    0.60931005    -0.24330000
opls_750-398    N    0.61726001    0.57896001    0.70563017    -0.21560000
opls_750-399    N    0.60677984    0.41787004    0.54289927    -0.24150000
opls_750-400    N    0.29752010    0.64840999    0.28058938    -0.24480000
opls_750-401    N    0.06821008    0.71785998    0.03650005    -0.24220000
opls_750-402    N    0.80125989    0.15869993    0.42966046    -0.24340000
opls_750-403    N    0.56078989    0.20905005    0.14719965    -0.17510000
opls_750-404    N    0.06296011    0.30467007    0.12472977    -0.21910000
opls_750-405    N    0.31580999    0.34352998    0.45522929    -0.18280000
opls_750-406    N    0.54440993    0.80184003    0.67170019    -0.26530000
opls_750-407    N    0.78225984    0.85554993    0.58467974    -0.16160000
opls_146-408    H    0.87606984    0.99538006    0.99456946    0.04690000
opls_146-409    H    0.85199999    0.96269993    0.85582916    0.04690000
opls_146-410    H    0.94313984    0.95563008    0.46026983    0.04690000
opls_146-411    H    0.96760996    0.98789000    0.59906905    0.04690000
opls_144-412    H    0.89537987    0.93040999    0.44092977    0.03230000
opls_146-413    H    0.81599002    0.91115000    0.93042012    0.04970000
opls_146-414    H    0.85402009    0.90885000    0.32922010    0.04690000
opls_146-415    H    0.96714994    0.03418999    0.57955924    0.04690000
opls_146-416    H    0.94407003    0.06636992    0.42715913    0.04690000
opls_146-417    H    0.85751989    0.06639994    0.86299927    0.04690000
opls_146-418    H    0.87920004    0.03381001    0.00862909    0.04690000
opls_144-419    H    0.86239993    0.09502004    0.64200971    0.03230000
opls_146-420    H    0.90973996    0.13507001    0.44887005    0.05390000
opls_146-421    H    0.83758000    0.09207999    0.22821999    0.05110000
opls_146-422    H    0.38173992    0.49070999    0.96164956    0.04690000
opls_146-423    H    0.35497990    0.45705995    0.85687010    0.04690000
opls_146-424    H    0.44108986    0.44653995    0.43093007    0.04690000
opls_146-425    H    0.46787992    0.47990006    0.53435014    0.04690000
opls_146-426    H    0.48677999    0.53546994    0.63244910    0.05360000
opls_146-427    H    0.47298998    0.56689998    0.43502927    0.04690000
opls_146-428    H    0.36717992    0.54878997    0.52474043    0.05260000
opls_146-429    H    0.38056991    0.51889998    0.73278986    0.04690000
opls_144-430    H    0.43176997    0.59078008    0.31121979    0.03260000
opls_144-431    H    0.35393991    0.42606003    0.66472929    0.03230000
opls_146-432    H    0.39938998    0.61970001    0.37117032    0.13620000
opls_146-433    H    0.32349006    0.57834007    0.18628941    0.05110000
opls_146-434    H    0.35057992    0.40937000    0.20210965    0.05110000
opls_146-435    H    0.40048981    0.38250004    0.66273019    0.14090000
opls_146-436    H    0.80259003    0.69289008    0.79147921    0.09660000
opls_146-437    H    0.86471999    0.68631005    0.73311953    0.04690000
opls_146-438    H    0.87893998    0.72442995    0.23126984    0.11320000
opls_146-439    H    0.81720000    0.72867997    0.30262997    0.04690000
opls_146-440    H    0.73220006    0.67913004    0.04041968    0.05110000
opls_146-441    H    0.70010992    0.65817003    0.30382943    0.05260000
opls_146-442    H    0.73989000    0.69973002    0.71762897    0.05380000
opls_146-443    H    0.77414008    0.71921992    0.45819918    0.05360000
opls_144-444    H    0.67545986    0.67741007    0.76717016    0.03230000
opls_144-445    H    0.92204994    0.68631995    0.87365973    0.03300000
opls_146-446    H    0.63889003    0.65089998    0.63692989    0.05160000
opls_146-447    H    0.71511003    0.60924994    0.81463930    0.13620000
opls_146-448    H    0.96978984    0.68214002    0.98034991    0.04980000
opls_146-449    H    0.96964002    0.75143003    0.98817936    0.04990000
opls_146-450    H    0.32493986    0.18212006    0.88304918    0.04910000
opls_146-451    H    0.38734984    0.18705005    0.85125017    0.04970000
opls_146-452    H    0.37402987    0.25629999    0.79759014    0.04750000
opls_146-453    H    0.31214979    0.25171007    0.84876007    0.04970000
opls_146-454    H    0.22910004    0.23448998    0.12448988    0.04980000
opls_146-455    H    0.18979003    0.21719007    0.37955952    0.04690000
opls_146-456    H    0.25811005    0.16277002    0.38329959    0.05260000
opls_146-457    H    0.29497991    0.17852000    0.11138000    0.04700000
opls_144-458    H    0.17001997    0.18680993    0.56002980    0.03230000
opls_144-459    H    0.43200996    0.24127006    0.77069980    0.03300000
opls_146-460    H    0.13274991    0.16437998    0.52366022    0.05110000
opls_146-461    H    0.20488998    0.12141007    0.74622942    0.04970000
opls_146-462    H    0.47314982    0.17538996    0.93180897    0.05110000
opls_146-463    H    0.47280993    0.24469993    0.93429907    0.05110000
opls_146-464    H    0.80876000    0.29973002    0.61176929    0.05560000
opls_146-465    H    0.76987001    0.32919007    0.74061931    0.05260000
opls_146-466    H    0.70240988    0.31379005    0.32145938    0.11300000
opls_146-467    H    0.74067993    0.28469003    0.19295026    0.11880000
opls_146-468    H    0.84633988    0.29905005    0.39474987    0.04750000
opls_146-469    H    0.89914996    0.30692999    0.18088973    0.04950000
opls_146-470    H    0.86879989    0.26124994    0.76897987    0.04750000
opls_146-471    H    0.81575989    0.25420005    0.97672066    0.04820000
opls_144-472    H    0.92649985    0.27732993    0.71671991    0.03260000
opls_144-473    H    0.71800000    0.34992001    0.74420928    0.05360000
opls_146-474    H    0.97199003    0.26905995    0.94333921    0.05110000
opls_146-475    H    0.97217988    0.33842005    0.94266022    0.05110000
opls_146-476    H    0.68464984    0.37655001    0.79943913    0.14050000
opls_146-477    H    0.63438988    0.34965993    0.33991984    0.05260000
opls_146-478    H    0.30324990    0.79209994    0.69483924    0.09650000
opls_146-479    H    0.27081981    0.82604997    0.77501925    0.05110000
opls_146-480    H    0.23157996    0.82335004    0.22899999    0.09650000
opls_146-481    H    0.26339993    0.78982007    0.14944986    0.05110000
opls_146-482    H    0.34022005    0.75360996    0.63138011    0.04690000
opls_146-483    H    0.40151996    0.76028004    0.64643999    0.12560000
opls_146-484    H    0.40561991    0.79820995    0.12799988    0.04690000
opls_146-485    H    0.34586003    0.78987004    0.10390968    0.12560000
opls_144-486    H    0.45632992    0.77499002    0.50967915    0.05360000
opls_144-487    H    0.22897983    0.85357995    0.69941963    0.02930000
opls_146-488    H    0.48016002    0.76636992    0.14634950    0.04750000
opls_146-489    H    0.48034994    0.83566999    0.14725997    0.04750000
opls_146-490    H    0.21568994    0.87746005    0.10295011    0.04690000
opls_146-491    H    0.17903982    0.87546994    0.70617027    0.04980000
opls_146-492    H    0.75247996    0.76349006    0.39537977    0.06220000
opls_146-493    H    0.81680989    0.74428993    0.93500893    0.06020000
opls_146-494    H    0.70764001    0.72099002    0.29777041    0.06000000
opls_146-495    H    0.64982995    0.73601996    0.72357997    0.11310000
opls_146-496    H    0.87048000    0.75702004    0.74802931    0.06090000
opls_146-497    H    0.89963988    0.77299992    0.45091966    0.04910000
opls_146-498    H    0.86709001    0.78337000    0.18407005    0.04690000
opls_146-499    H    0.80520992    0.77763008    0.20953928    0.06020000
opls_146-500    H    0.59515001    0.72242995    0.89314989    0.06000000
opls_146-501    H    0.56258000    0.70978000    0.19405012    0.04980000
opls_146-502    H    0.59165001    0.70226008    0.48093982    0.04690000
opls_146-503    H    0.65339007    0.70763008    0.47175939    0.11310000
opls_146-504    H    0.24353010    0.27011000    0.30132951    0.13620000
opls_146-505    H    0.31631001    0.21234996    0.52320989    0.05110000
opls_146-506    H    0.36805990    0.22984003    0.34765951    0.05360000
opls_146-507    H    0.39384990    0.26291993    0.18891980    0.04750000
opls_146-508    H    0.35724995    0.29209005    0.07985034    0.04720000
opls_146-509    H    0.29469989    0.28858993    0.12872937    0.04820000
opls_146-510    H    0.22366998    0.18426008    0.91662002    0.05290000
opls_146-511    H    0.14957006    0.24083005    0.67242968    0.05350000
opls_146-512    H    0.09869986    0.21798994    0.77325023    0.05350000
opls_146-513    H    0.07463981    0.18379995    0.91588912    0.04980000
opls_146-514    H    0.11138984    0.15700008    0.05668885    0.04710000
opls_146-515    H    0.17261986    0.16366999    0.05381996    0.05390000
opls_146-516    H    0.43697999    0.46771007    0.02413930    0.04910000
opls_146-517    H    0.43651003    0.42729001    0.04014051    0.04930000
opls_146-518    H    0.46855990    0.39272994    0.02012988    0.04910000
opls_146-519    H    0.56256003    0.54656997    0.00840043    0.04960000
opls_146-520    H    0.43854995    0.58680003    0.95235971    0.05290000
opls_146-521    H    0.46970990    0.62154003    0.97261023    0.04980000
opls_146-522    H    0.93709012    0.97292999    0.08012951    0.04730000
opls_146-523    H    0.93708003    0.93308007    0.09096954    0.04720000
opls_146-524    H    0.96887992    0.89839004    0.04475037    0.04930000
opls_146-525    H    0.06285988    0.05218999    0.92162969    0.04720000
opls_146-526    H    0.93696988    0.09245997    0.08398041    0.04720000
opls_146-527    H    0.96875990    0.12719007    0.04141012    0.04930000
opls_146-528    H    0.12392991    0.99538006    0.00543054    0.04690000
opls_146-529    H    0.14800003    0.96269993    0.14416943    0.04690000
opls_146-530    H    0.05685991    0.95563008    0.53973017    0.04690000
opls_146-531    H    0.03239006    0.98789000    0.40092955    0.04690000
opls_144-532    H    0.10461989    0.93040999    0.55907023    0.03230000
opls_146-533    H    0.18400998    0.91115000    0.06957988    0.04970000
opls_146-534    H    0.14597991    0.90885000    0.67077990    0.04690000
opls_146-535    H    0.03285007    0.03418999    0.42043935    0.04690000
opls_146-536    H    0.05592999    0.06636992    0.57283946    0.04690000
opls_146-537    H    0.14247988    0.06639994    0.13699933    0.04690000
opls_146-538    H    0.12079998    0.03381001    0.99136950    0.04690000
opls_144-539    H    0.13760007    0.09502004    0.35799029    0.03230000
opls_146-540    H    0.09026004    0.13507001    0.55112995    0.05390000
opls_146-541    H    0.16242000    0.09207999    0.77178001    0.05110000
opls_146-542    H    0.61826008    0.49070999    0.03835044    0.04690000
opls_146-543    H    0.64502010    0.45705995    0.14312990    0.04690000
opls_146-544    H    0.55890989    0.44653995    0.56906993    0.04690000
opls_146-545    H    0.53211983    0.47990006    0.46564986    0.04690000
opls_146-546    H    0.51322003    0.53546994    0.36754950    0.05360000
opls_146-547    H    0.52701004    0.56689998    0.56496933    0.04690000
opls_146-548    H    0.63282008    0.54878997    0.47525957    0.05270000
opls_146-549    H    0.61943009    0.51889998    0.26721014    0.04690000
opls_144-550    H    0.56823003    0.59078008    0.68878021    0.03260000
opls_144-551    H    0.64605985    0.42606003    0.33526930    0.03230000
opls_146-552    H    0.60061002    0.61970001    0.62882968    0.13620000
opls_146-553    H    0.67650996    0.57834007    0.81370919    0.05110000
opls_146-554    H    0.64941985    0.40937000    0.79788895    0.05110000
opls_146-555    H    0.59950994    0.38250004    0.33726981    0.14080000
opls_146-556    H    0.19740998    0.69289008    0.20851939    0.09650000
opls_146-557    H    0.13528001    0.68631005    0.26688047    0.04690000
opls_146-558    H    0.12106002    0.72442995    0.76873016    0.11310000
opls_146-559    H    0.18280000    0.72867997    0.69737003    0.04690000
opls_146-560    H    0.26779996    0.67913004    0.95957891    0.05110000
opls_146-561    H    0.29988985    0.65817003    0.69616916    0.05260000
opls_146-562    H    0.26011002    0.69973002    0.28236963    0.05380000
opls_146-563    H    0.22585993    0.71921992    0.54179941    0.05360000
opls_144-564    H    0.32453989    0.67741007    0.23282984    0.03230000
opls_144-565    H    0.07795006    0.68631995    0.12634027    0.03300000
opls_146-566    H    0.36110997    0.65089998    0.36307011    0.05160000
opls_146-567    H    0.28488999    0.60924994    0.18535930    0.13620000
opls_146-568    H    0.03020991    0.68214002    0.01965009    0.04980000
opls_146-569    H    0.03035998    0.75143003    0.01182064    0.04980000
opls_146-570    H    0.67505990    0.18212006    0.11694942    0.04910000
opls_146-571    H    0.61264991    0.18705005    0.14874983    0.04970000
opls_146-572    H    0.62596989    0.25629999    0.20240986    0.04750000
opls_146-573    H    0.68784996    0.25171007    0.15123993    0.04970000
opls_146-574    H    0.77089996    0.23448998    0.87551012    0.04980000
opls_146-575    H    0.81020998    0.21719007    0.62043907    0.04690000
opls_146-576    H    0.74188995    0.16277002    0.61670041    0.05260000
opls_146-577    H    0.70501985    0.17852000    0.88862000    0.04690000
opls_144-578    H    0.82998003    0.18680993    0.43997020    0.03230000
opls_144-579    H    0.56799004    0.24127006    0.22930020    0.03300000
opls_146-580    H    0.86724984    0.16437998    0.47633978    0.05120000
opls_146-581    H    0.79511003    0.12141007    0.25376918    0.04970000
opls_146-582    H    0.52684995    0.17538996    0.06818963    0.05110000
opls_146-583    H    0.52719008    0.24469993    0.06569952    0.05110000
opls_146-584    H    0.19124001    0.29973002    0.38822930    0.05560000
opls_146-585    H    0.23013000    0.32919007    0.25937928    0.05260000
opls_146-586    H    0.29758989    0.31379005    0.67853921    0.11300000
opls_146-587    H    0.25931983    0.28469003    0.80704974    0.11880000
opls_146-588    H    0.15365987    0.29905005    0.60525013    0.04750000
opls_146-589    H    0.10084980    0.30692999    0.81911027    0.04950000
opls_146-590    H    0.13119986    0.26124994    0.23102013    0.04750000
opls_146-591    H    0.18423986    0.25420005    0.02327934    0.04820000
opls_144-592    H    0.07349990    0.27732993    0.28328009    0.03260000
opls_144-593    H    0.28200002    0.34992001    0.25578932    0.05360000
opls_146-594    H    0.02800998    0.26905995    0.05665939    0.05110000
opls_146-595    H    0.02781987    0.33842005    0.05733978    0.05110000
opls_146-596    H    0.31534992    0.37655001    0.20055947    0.14070000
opls_146-597    H    0.36560987    0.34965993    0.66008016    0.05260000
opls_146-598    H    0.69674987    0.79209994    0.30515936    0.09650000
opls_146-599    H    0.72917996    0.82604997    0.22497934    0.05110000
opls_146-600    H    0.76842004    0.82335004    0.77100001    0.11310000
opls_146-601    H    0.73659983    0.78982007    0.85055014    0.05110000
opls_146-602    H    0.65977995    0.75360996    0.36861989    0.04690000
opls_146-603    H    0.59848004    0.76028004    0.35356001    0.12560000
opls_146-604    H    0.59437984    0.79820995    0.87200012    0.04690000
opls_146-605    H    0.65413999    0.78987004    0.89608892    0.12560000
opls_144-606    H    0.54366984    0.77499002    0.49031945    0.05350000
opls_144-607    H    0.77101992    0.85357995    0.30058037    0.02930000
opls_146-608    H    0.51983999    0.76636992    0.85364909    0.04750000
opls_146-609    H    0.51964981    0.83566999    0.85274003    0.04750000
opls_146-610    H    0.78430981    0.87746005    0.89704989    0.04690000
opls_146-611    H    0.82095993    0.87546994    0.29382973    0.04980000
opls_146-612    H    0.24752004    0.76349006    0.60462023    0.06230000
opls_146-613    H    0.18319012    0.74428993    0.06498967    0.06020000
opls_146-614    H    0.29235999    0.72099002    0.70222959    0.06000000
opls_146-615    H    0.35017005    0.73601996    0.27642003    0.11310000
opls_146-616    H    0.12952002    0.75702004    0.25196929    0.06090000
opls_146-617    H    0.10035987    0.77299992    0.54908034    0.04910000
opls_146-618    H    0.13290999    0.78337000    0.81592995    0.04690000
opls_146-619    H    0.19478985    0.77763008    0.79045932    0.06020000
opls_146-620    H    0.40484999    0.72242995    0.10685011    0.06020000
opls_146-621    H    0.43742000    0.70978000    0.80594988    0.04980000
opls_146-622    H    0.40834999    0.70226008    0.51906018    0.04690000
opls_146-623    H    0.34660995    0.70763008    0.52823921    0.11310000
opls_146-624    H    0.75646992    0.27011000    0.69866909    0.13630000
opls_146-625    H    0.68368999    0.21234996    0.47679011    0.05110000
opls_146-626    H    0.63193987    0.22984003    0.65233909    0.05360000
opls_146-627    H    0.60614985    0.26291993    0.81108020    0.04750000
opls_146-628    H    0.64274980    0.29209005    0.92014966    0.04720000
opls_146-629    H    0.70529988    0.28858993    0.87126922    0.04820000
opls_146-630    H    0.77633002    0.18426008    0.08337998    0.05290000
opls_146-631    H    0.85042994    0.24083005    0.32757032    0.05350000
opls_146-632    H    0.90129989    0.21798994    0.22674977    0.05350000
opls_146-633    H    0.92535996    0.18379995    0.08410947    0.04980000
opls_146-634    H    0.88860993    0.15700008    0.94330975    0.04710000
opls_146-635    H    0.82737990    0.16366999    0.94618004    0.05390000
opls_146-636    H    0.56302003    0.46771007    0.97585930    0.04910000
opls_146-637    H    0.56348997    0.42729001    0.95985949    0.04930000
opls_146-638    H    0.53143985    0.39272994    0.97987012    0.04910000
opls_146-639    H    0.43743997    0.54656997    0.99159957    0.04960000
opls_146-640    H    0.56145005    0.58680003    0.04764029    0.05290000
opls_146-641    H    0.53029010    0.62154003    0.02738977    0.04980000
opls_146-642    H    0.06290990    0.97292999    0.91986908    0.04720000
opls_146-643    H    0.06291998    0.93308007    0.90902905    0.04720000
opls_146-644    H    0.03111983    0.89839004    0.95524963    0.04930000
opls_146-645    H    0.93713987    0.05218999    0.07837031    0.04720000
opls_146-646    H    0.06302987    0.09245997    0.91601959    0.04720000
opls_146-647    H    0.03123985    0.12719007    0.95858988    0.04930000
