#======================================================================
# Crystal Data Generated By AuToFF
#----------------------------------------------------------------------

data_AuToFF_phase_1

_cell_length_a                         28.8000
_cell_length_b                         28.8000
_cell_length_c                         7.2000
_cell_angle_alpha                      90.00
_cell_angle_beta                       90.00
_cell_angle_gamma                      90.00
_symmetry_space_group_name_H-M_alt     'P 1'
_symmetry_space_group_IT_number        1

loop_
_space_group_symop_operation_xyz
   'x, y, z'

loop_
   _atom_site_label
   _atom_site_type_symbol
   _atom_site_fract_x
   _atom_site_fract_y
   _atom_site_fract_z
   _atom_site_charge
opls_700-0    C    0.78480000    0.22820000    0.37050000    -0.02040000
opls_700-1    C    0.81830000    0.20520000    0.48300000    0.11490000
opls_145-2    C    0.82240000    0.21740000    0.66690000    -0.06800000
opls_145-3    C    0.84840000    0.17090000    0.41780000    -0.07210000
opls_145-4    C    0.85780000    0.19940000    0.77780000    -0.09900000
opls_145-5    C    0.88600000    0.15530000    0.52650000    -0.09790000
opls_700-6    C    0.88910000    0.16750000    0.70990000    0.07670000
opls_142-7    C    0.91750000    0.13980000    0.83760000    0.03990000
opls_145-8    C    0.07680000    0.91750000    0.10740000    0.26160000
opls_145-9    C    0.09830000    0.93350000    0.26770000    -0.13120000
opls_145-10    C    0.07320000    0.95910000    0.39660000    -0.10070000
opls_700-11    C    0.74080000    0.20510000    0.34230000    0.02880000
opls_145-12    C    0.02990000    0.92680000    0.08260000    -0.14170000
opls_145-13    C    0.00510000    0.95060000    0.21560000    -0.08920000
opls_145-14    C    0.02800000    0.97160000    0.35880000    0.06130000
opls_135-15    C    0.84210000    0.50150000    0.48850000    -0.36850000
opls_141-16    C    0.80070000    0.50640000    0.38880000    0.39390000
opls_135-17    C    0.80170000    0.50710000    0.19420000    -0.36590000
opls_135-18    C    0.52730000    0.27620000    0.16410000    -0.37450000
opls_141-19    C    0.52450000    0.32220000    0.10400000    0.39380000
opls_135-20    C    0.51760000    0.35790000    0.23320000    -0.36940000
opls_700-21    C    0.70660000    0.22750000    0.22180000    0.02800000
opls_135-22    C    0.89070000    0.82800000    0.05960000    -0.37580000
opls_141-23    C    0.90160000    0.78960000    0.94900000    0.39370000
opls_135-24    C    0.90240000    0.74510000    0.02720000    -0.37320000
opls_135-25    C    0.07570000    0.48620000    0.05750000    -0.37450000
opls_141-26    C    0.04980000    0.44570000    0.08240000    0.39380000
opls_135-27    C    0.06850000    0.40850000    0.18270000    -0.37320000
opls_145-28    C    0.66380000    0.20090000    0.19170000    -0.15570000
opls_166-29    C    0.65160000    0.16300000    0.29450000    0.19720000
opls_166-30    C    0.68440000    0.14210000    0.41420000    0.25130000
opls_145-31    C    0.72730000    0.16320000    0.44270000    -0.15400000
opls_181-32    C    0.92390000    0.33550000    0.34110000    -0.16110000
opls_181-33    C    0.69860000    0.07260000    0.60930000    -0.14450000
opls_700-34    C    0.21520000    0.77180000    0.37050000    -0.02040000
opls_700-35    C    0.18170000    0.79480000    0.48300000    0.11500000
opls_145-36    C    0.17760000    0.78260000    0.66690000    -0.06800000
opls_145-37    C    0.15160000    0.82910000    0.41780000    -0.07210000
opls_145-38    C    0.14220000    0.80060000    0.77780000    -0.09900000
opls_145-39    C    0.11400000    0.84470000    0.52650000    -0.09790000
opls_700-40    C    0.11090000    0.83250000    0.70990000    0.07670000
opls_142-41    C    0.08250000    0.86020000    0.83760000    0.07870000
opls_145-42    C    0.92320000    0.08250000    0.10740000    0.25420000
opls_145-43    C    0.90170000    0.06650000    0.26770000    -0.13120000
opls_145-44    C    0.92680000    0.04090000    0.39660000    -0.10070000
opls_700-45    C    0.25920000    0.79490000    0.34230000    0.02880000
opls_145-46    C    0.97010000    0.07320000    0.08260000    -0.14170000
opls_145-47    C    0.99490000    0.04940000    0.21560000    -0.08920000
opls_145-48    C    0.97200000    0.02840000    0.35880000    0.06130000
opls_135-49    C    0.15790000    0.49850000    0.48850000    -0.36840000
opls_141-50    C    0.19930000    0.49360000    0.38880000    0.39370000
opls_135-51    C    0.19830000    0.49290000    0.19420000    -0.36750000
opls_135-52    C    0.47270000    0.72380000    0.16410000    -0.37450000
opls_141-53    C    0.47550000    0.67780000    0.10400000    0.39380000
opls_135-54    C    0.48240000    0.64210000    0.23320000    -0.36940000
opls_700-55    C    0.29340000    0.77250000    0.22180000    0.02800000
opls_135-56    C    0.10930000    0.17200000    0.05960000    -0.36850000
opls_141-57    C    0.09840000    0.21040000    0.94900000    0.39370000
opls_135-58    C    0.09760000    0.25490000    0.02720000    -0.37310000
opls_135-59    C    0.92430000    0.51380000    0.05750000    -0.37450000
opls_141-60    C    0.95020000    0.55430000    0.08240000    0.39380000
opls_135-61    C    0.93150000    0.59150000    0.18270000    -0.37050000
opls_145-62    C    0.33620000    0.79910000    0.19170000    -0.15570000
opls_166-63    C    0.34840000    0.83700000    0.29450000    0.19720000
opls_166-64    C    0.31560000    0.85790000    0.41420000    0.25130000
opls_145-65    C    0.27270000    0.83680000    0.44270000    -0.15400000
opls_181-66    C    0.07610000    0.66450000    0.34110000    -0.16110000
opls_181-67    C    0.30140000    0.92740000    0.60930000    -0.14450000
opls_700-68    C    0.27180000    0.28480000    0.87050000    -0.02040000
opls_700-69    C    0.29480000    0.31830000    0.98300000    0.11490000
opls_145-70    C    0.28260000    0.32240000    0.16690000    -0.06800000
opls_145-71    C    0.32910000    0.34840000    0.91780000    -0.07210000
opls_145-72    C    0.30060000    0.35780000    0.27780000    -0.09890000
opls_145-73    C    0.34470000    0.38600000    0.02650000    -0.09790000
opls_700-74    C    0.33250000    0.38910000    0.20990000    0.07670000
opls_142-75    C    0.36020000    0.41750000    0.33760000    0.07870000
opls_145-76    C    0.58250000    0.57680000    0.60740000    0.26160000
opls_145-77    C    0.56650000    0.59830000    0.76770000    -0.13120000
opls_145-78    C    0.54090000    0.57320000    0.89660000    -0.10070000
opls_700-79    C    0.29490000    0.24080000    0.84230000    0.02880000
opls_145-80    C    0.57320000    0.52990000    0.58260000    -0.14170000
opls_145-81    C    0.54940000    0.50510000    0.71560000    -0.08920000
opls_145-82    C    0.52840000    0.52800000    0.85880000    0.06130000
opls_135-83    C    0.99850000    0.34210000    0.98850000    -0.36850000
opls_141-84    C    0.99360000    0.30070000    0.88880000    0.39370000
opls_135-85    C    0.99290000    0.30170000    0.69420000    -0.36590000
opls_135-86    C    0.22380000    0.02730000    0.66410000    -0.37450000
opls_141-87    C    0.17780000    0.02450000    0.60400000    0.39380000
opls_135-88    C    0.14210000    0.01760000    0.73320000    -0.36940000
opls_700-89    C    0.27250000    0.20660000    0.72180000    0.02800000
opls_135-90    C    0.67200000    0.39070000    0.55960000    -0.38500000
opls_141-91    C    0.71040000    0.40160000    0.44900000    0.39370000
opls_135-92    C    0.75490000    0.40240000    0.52720000    -0.37320000
opls_135-93    C    0.01380000    0.57570000    0.55750000    -0.37450000
opls_141-94    C    0.05430000    0.54980000    0.58240000    0.39380000
opls_135-95    C    0.09150000    0.56850000    0.68270000    -0.37320000
opls_145-96    C    0.29910000    0.16380000    0.69170000    -0.15570000
opls_166-97    C    0.33700000    0.15160000    0.79450000    0.19720000
opls_166-98    C    0.35790000    0.18440000    0.91420000    0.25130000
opls_145-99    C    0.33680000    0.22730000    0.94270000    -0.15400000
opls_181-100    C    0.16450000    0.42390000    0.84110000    -0.16110000
opls_181-101    C    0.42740000    0.19860000    0.10930000    -0.14450000
opls_700-102    C    0.72820000    0.71520000    0.87050000    -0.02040000
opls_700-103    C    0.70520000    0.68170000    0.98300000    0.11490000
opls_145-104    C    0.71740000    0.67760000    0.16690000    -0.06800000
opls_145-105    C    0.67090000    0.65160000    0.91780000    -0.07210000
opls_145-106    C    0.69940000    0.64220000    0.27780000    -0.09900000
opls_145-107    C    0.65530000    0.61400000    0.02650000    -0.09790000
opls_700-108    C    0.66750000    0.61090000    0.20990000    0.07670000
opls_142-109    C    0.63980000    0.58250000    0.33760000    0.07870000
opls_145-110    C    0.41750000    0.42320000    0.60740000    0.26160000
opls_145-111    C    0.43350000    0.40170000    0.76770000    -0.13120000
opls_145-112    C    0.45910000    0.42680000    0.89660000    -0.10070000
opls_700-113    C    0.70510000    0.75920000    0.84230000    0.02880000
opls_145-114    C    0.42680000    0.47010000    0.58260000    -0.14170000
opls_145-115    C    0.45060000    0.49490000    0.71560000    -0.08920000
opls_145-116    C    0.47160000    0.47200000    0.85880000    0.06130000
opls_135-117    C    0.00150000    0.65790000    0.98850000    -0.36850000
opls_141-118    C    0.00640000    0.69930000    0.88880000    0.39370000
opls_135-119    C    0.00710000    0.69830000    0.69420000    -0.36590000
opls_135-120    C    0.77620000    0.97270000    0.66410000    -0.37450000
opls_141-121    C    0.82220000    0.97550000    0.60400000    0.39380000
opls_135-122    C    0.85790000    0.98240000    0.73320000    -0.36940000
opls_700-123    C    0.72750000    0.79340000    0.72180000    0.02800000
opls_135-124    C    0.32800000    0.60930000    0.55960000    -0.37200000
opls_141-125    C    0.28960000    0.59840000    0.44900000    0.39370000
opls_135-126    C    0.24510000    0.59760000    0.52720000    -0.37320000
opls_135-127    C    0.98620000    0.42430000    0.55750000    -0.37450000
opls_141-128    C    0.94570000    0.45020000    0.58240000    0.39390000
opls_135-129    C    0.90850000    0.43150000    0.68270000    -0.37320000
opls_145-130    C    0.70090000    0.83620000    0.69170000    -0.15570000
opls_166-131    C    0.66300000    0.84840000    0.79450000    0.19720000
opls_166-132    C    0.64210000    0.81560000    0.91420000    0.25130000
opls_145-133    C    0.66320000    0.77270000    0.94270000    -0.15400000
opls_181-134    C    0.83550000    0.57610000    0.84110000    -0.16110000
opls_181-135    C    0.57260000    0.80140000    0.10930000    -0.14450000
opls_700-136    C    0.71520000    0.27180000    0.12950000    -0.02040000
opls_700-137    C    0.68170000    0.29480000    0.01700000    0.11490000
opls_145-138    C    0.67760000    0.28260000    0.83310000    -0.06800000
opls_145-139    C    0.65160000    0.32910000    0.08220000    -0.07210000
opls_145-140    C    0.64220000    0.30060000    0.72220000    -0.09900000
opls_145-141    C    0.61400000    0.34470000    0.97350000    -0.09790000
opls_700-142    C    0.61090000    0.33250000    0.79010000    0.07670000
opls_142-143    C    0.58250000    0.36020000    0.66240000    0.07870000
opls_145-144    C    0.42320000    0.58250000    0.39260000    0.26160000
opls_145-145    C    0.40170000    0.56650000    0.23230000    -0.13120000
opls_145-146    C    0.42680000    0.54090000    0.10340000    -0.10070000
opls_700-147    C    0.75920000    0.29490000    0.15770000    0.02880000
opls_145-148    C    0.47010000    0.57320000    0.41740000    -0.14170000
opls_145-149    C    0.49490000    0.54940000    0.28440000    -0.08920000
opls_145-150    C    0.47200000    0.52840000    0.14120000    0.06130000
opls_135-151    C    0.65790000    0.99850000    0.01150000    -0.36850000
opls_141-152    C    0.69930000    0.99360000    0.11120000    0.39370000
opls_135-153    C    0.69830000    0.99290000    0.30580000    -0.36590000
opls_135-154    C    0.97270000    0.22380000    0.33590000    -0.37450000
opls_141-155    C    0.97550000    0.17780000    0.39600000    0.39380000
opls_135-156    C    0.98240000    0.14210000    0.26680000    -0.36940000
opls_700-157    C    0.79340000    0.27250000    0.27820000    0.02800000
opls_135-158    C    0.60930000    0.67200000    0.44040000    -0.38500000
opls_141-159    C    0.59840000    0.71040000    0.55100000    0.39370000
opls_135-160    C    0.59760000    0.75490000    0.47280000    -0.37320000
opls_135-161    C    0.42430000    0.01380000    0.44250000    -0.37450000
opls_141-162    C    0.45020000    0.05430000    0.41760000    0.39380000
opls_135-163    C    0.43150000    0.09150000    0.31730000    -0.37050000
opls_145-164    C    0.83620000    0.29910000    0.30830000    -0.15570000
opls_166-165    C    0.84840000    0.33700000    0.20550000    0.19720000
opls_166-166    C    0.81560000    0.35790000    0.08580000    0.25130000
opls_145-167    C    0.77270000    0.33680000    0.05730000    -0.15400000
opls_181-168    C    0.57610000    0.16450000    0.15890000    -0.16110000
opls_181-169    C    0.80140000    0.42740000    0.89070000    -0.14450000
opls_700-170    C    0.28480000    0.72820000    0.12950000    -0.02040000
opls_700-171    C    0.31830000    0.70520000    0.01700000    0.11490000
opls_145-172    C    0.32240000    0.71740000    0.83310000    -0.06800000
opls_145-173    C    0.34840000    0.67090000    0.08220000    -0.07210000
opls_145-174    C    0.35780000    0.69940000    0.72220000    -0.09900000
opls_145-175    C    0.38600000    0.65530000    0.97350000    -0.09790000
opls_700-176    C    0.38910000    0.66750000    0.79010000    0.07670000
opls_142-177    C    0.41750000    0.63980000    0.66240000    0.07870000
opls_916-178    C    0.57680000    0.41750000    0.39260000    0.26160000
opls_145-179    C    0.59830000    0.43350000    0.23230000    -0.13120000
opls_145-180    C    0.57320000    0.45910000    0.10340000    -0.10070000
opls_700-181    C    0.24080000    0.70510000    0.15770000    0.02880000
opls_145-182    C    0.52990000    0.42680000    0.41740000    -0.14170000
opls_145-183    C    0.50510000    0.45060000    0.28440000    -0.08920000
opls_145-184    C    0.52800000    0.47160000    0.14120000    0.06130000
opls_135-185    C    0.34210000    0.00150000    0.01150000    -0.36850000
opls_141-186    C    0.30070000    0.00640000    0.11120000    0.39370000
opls_135-187    C    0.30170000    0.00710000    0.30580000    -0.36590000
opls_135-188    C    0.02730000    0.77620000    0.33590000    -0.37450000
opls_141-189    C    0.02450000    0.82220000    0.39600000    0.39390000
opls_135-190    C    0.01760000    0.85790000    0.26680000    -0.36940000
opls_700-191    C    0.20660000    0.72750000    0.27820000    0.02800000
opls_135-192    C    0.39070000    0.32800000    0.44040000    -0.38370000
opls_141-193    C    0.40160000    0.28960000    0.55100000    0.39370000
opls_135-194    C    0.40240000    0.24510000    0.47280000    -0.37320000
opls_135-195    C    0.57570000    0.98620000    0.44250000    -0.37450000
opls_141-196    C    0.54980000    0.94570000    0.41760000    0.39380000
opls_135-197    C    0.56850000    0.90850000    0.31730000    -0.37320000
opls_145-198    C    0.16380000    0.70090000    0.30830000    -0.15570000
opls_166-199    C    0.15160000    0.66300000    0.20550000    0.19730000
opls_166-200    C    0.18440000    0.64210000    0.08580000    0.25130000
opls_145-201    C    0.22730000    0.66320000    0.05730000    -0.15400000
opls_181-202    C    0.42390000    0.83550000    0.15890000    -0.16110000
opls_181-203    C    0.19860000    0.57260000    0.89070000    -0.14450000
opls_700-204    C    0.22820000    0.21520000    0.62950000    -0.02040000
opls_700-205    C    0.20520000    0.18170000    0.51700000    0.11500000
opls_145-206    C    0.21740000    0.17760000    0.33310000    -0.06800000
opls_145-207    C    0.17090000    0.15160000    0.58220000    -0.07210000
opls_145-208    C    0.19940000    0.14220000    0.22220000    -0.09900000
opls_145-209    C    0.15530000    0.11400000    0.47350000    -0.09790000
opls_700-210    C    0.16750000    0.11090000    0.29010000    0.07670000
opls_142-211    C    0.13980000    0.08250000    0.16240000    0.07870000
opls_145-212    C    0.91750000    0.92320000    0.89260000    0.26160000
opls_145-213    C    0.93350000    0.90170000    0.73230000    -0.13120000
opls_145-214    C    0.95910000    0.92680000    0.60340000    -0.10070000
opls_700-215    C    0.20510000    0.25920000    0.65770000    0.02880000
opls_145-216    C    0.92680000    0.97010000    0.91740000    -0.14170000
opls_145-217    C    0.95060000    0.99490000    0.78440000    -0.08920000
opls_145-218    C    0.97160000    0.97200000    0.64120000    0.06130000
opls_135-219    C    0.50150000    0.15790000    0.51150000    -0.36840000
opls_141-220    C    0.50640000    0.19930000    0.61120000    0.39370000
opls_135-221    C    0.50710000    0.19830000    0.80580000    -0.37590000
opls_135-222    C    0.27620000    0.47270000    0.83590000    -0.37450000
opls_141-223    C    0.32220000    0.47550000    0.89600000    0.39380000
opls_135-224    C    0.35790000    0.48240000    0.76680000    -0.36930000
opls_700-225    C    0.22750000    0.29340000    0.77820000    0.02800000
opls_135-226    C    0.82800000    0.10930000    0.94040000    -0.37570000
opls_141-227    C    0.78960000    0.09840000    0.05100000    0.39370000
opls_135-228    C    0.74510000    0.09760000    0.97280000    -0.37320000
opls_135-229    C    0.48620000    0.92430000    0.94250000    -0.37420000
opls_141-230    C    0.44570000    0.95020000    0.91760000    0.39380000
opls_135-231    C    0.40850000    0.93150000    0.81730000    -0.37320000
opls_145-232    C    0.20090000    0.33620000    0.80830000    -0.15570000
opls_166-233    C    0.16300000    0.34840000    0.70550000    0.19720000
opls_166-234    C    0.14210000    0.31560000    0.58580000    0.25130000
opls_145-235    C    0.16320000    0.27270000    0.55730000    -0.15400000
opls_181-236    C    0.33550000    0.07610000    0.65890000    -0.16110000
opls_181-237    C    0.07260000    0.30140000    0.39070000    -0.14450000
opls_700-238    C    0.77180000    0.78480000    0.62950000    -0.02040000
opls_700-239    C    0.79480000    0.81830000    0.51700000    0.11490000
opls_145-240    C    0.78260000    0.82240000    0.33310000    -0.06800000
opls_145-241    C    0.82910000    0.84840000    0.58220000    -0.07210000
opls_145-242    C    0.80060000    0.85780000    0.22220000    -0.09900000
opls_145-243    C    0.84470000    0.88600000    0.47350000    -0.09790000
opls_700-244    C    0.83250000    0.88910000    0.29010000    0.07670000
opls_142-245    C    0.86020000    0.91750000    0.16240000    0.07870000
opls_145-246    C    0.08250000    0.07680000    0.89260000    0.26160000
opls_145-247    C    0.06650000    0.09830000    0.73230000    -0.13120000
opls_145-248    C    0.04090000    0.07320000    0.60340000    -0.10070000
opls_700-249    C    0.79490000    0.74080000    0.65770000    0.02880000
opls_145-250    C    0.07320000    0.02990000    0.91740000    -0.14170000
opls_145-251    C    0.04940000    0.00510000    0.78440000    -0.08920000
opls_145-252    C    0.02840000    0.02800000    0.64120000    0.06130000
opls_135-253    C    0.49850000    0.84210000    0.51150000    -0.36850000
opls_141-254    C    0.49360000    0.80070000    0.61120000    0.39370000
opls_135-255    C    0.49290000    0.80170000    0.80580000    -0.36590000
opls_135-256    C    0.72380000    0.52730000    0.83590000    -0.37440000
opls_141-257    C    0.67780000    0.52450000    0.89600000    0.39380000
opls_135-258    C    0.64210000    0.51760000    0.76680000    -0.36930000
opls_700-259    C    0.77250000    0.70660000    0.77820000    0.02800000
opls_135-260    C    0.17200000    0.89070000    0.94040000    -0.37730000
opls_141-261    C    0.21040000    0.90160000    0.05100000    0.39370000
opls_135-262    C    0.25490000    0.90240000    0.97280000    -0.37320000
opls_135-263    C    0.51380000    0.07570000    0.94250000    -0.37440000
opls_141-264    C    0.55430000    0.04980000    0.91760000    0.39390000
opls_135-265    C    0.59150000    0.06850000    0.81730000    -0.37050000
opls_145-266    C    0.79910000    0.66380000    0.80830000    -0.15570000
opls_166-267    C    0.83700000    0.65160000    0.70550000    0.19720000
opls_166-268    C    0.85790000    0.68440000    0.58580000    0.25130000
opls_145-269    C    0.83680000    0.72730000    0.55730000    -0.15400000
opls_181-270    C    0.66450000    0.92390000    0.65890000    -0.16110000
opls_181-271    C    0.92740000    0.69860000    0.39070000    -0.14450000
opls_139-272    C    0.00000000    0.00000000    0.50000000    0.01950000
opls_139-273    C    0.50000000    0.50000000    0.00000000    0.01950000
opls_146-274    H    0.79657014    0.24267986    0.73149028    0.05200000
opls_146-275    H    0.84277986    0.15502986    0.27450972    0.05200000
opls_146-276    H    0.86131007    0.21106007    0.92845000    0.05200000
opls_146-277    H    0.91397014    0.13243993    0.46178056    0.05200000
opls_144-278    H    0.95698993    0.14128993    0.82851944    0.03070000
opls_146-279    H    0.13655000    0.92561007    0.29344028    0.05200000
opls_146-280    H    0.08998993    0.96975000    0.53350000    0.05200000
opls_146-281    H    0.01150000    0.91470000    0.95101944    0.05200000
opls_146-282    H    0.96565000    0.95268993    0.20576944    0.05210000
opls_282-283    H    0.87266007    0.51147986    0.39614028    0.10590000
opls_282-284    H    0.84611007    0.46388993    0.53515000    0.10580000
opls_282-285    H    0.84127014    0.52513993    0.61545972    0.10580000
opls_282-286    H    0.78263993    0.53921007    0.14169028    0.10580000
opls_282-287    H    0.78400000    0.47458993    0.13808056    0.10580000
opls_282-288    H    0.83927014    0.50807014    0.14455000    0.10580000
opls_282-289    H    0.51320000    0.25223993    0.05140000    0.10580000
opls_282-290    H    0.50590000    0.27177986    0.29613056    0.10580000
opls_282-291    H    0.56507986    0.26702014    0.19384028    0.10580000
opls_282-292    H    0.49702986    0.34400000    0.35653056    0.10580000
opls_282-293    H    0.49747986    0.38742014    0.16498056    0.10580000
opls_282-294    H    0.55267014    0.37132986    0.28324028    0.10580000
opls_282-295    H    0.86842014    0.81635000    0.18188056    0.10580000
opls_282-296    H    0.87072014    0.85452014    0.97344028    0.10580000
opls_282-297    H    0.92407986    0.84442986    0.11364028    0.10580000
opls_282-298    H    0.88533993    0.71946007    0.92774028    0.10580000
opls_282-299    H    0.88261007    0.74538993    0.16433056    0.10580000
opls_282-300    H    0.93990000    0.73422014    0.05320972    0.10580000
opls_282-301    H    0.07941007    0.49367014    0.90271944    0.10580000
opls_282-302    H    0.11157986    0.48151007    0.12165000    0.10580000
opls_282-303    H    0.05725000    0.51648993    0.12780000    0.10580000
opls_282-304    H    0.09242014    0.38745000    0.08874028    0.10580000
opls_282-305    H    0.03917986    0.38536007    0.23515972    0.10580000
opls_282-306    H    0.08912986    0.42238993    0.30588056    0.10580000
opls_146-307    H    0.86137014    0.28841007    0.42275972    0.05200000
opls_146-308    H    0.75287986    0.14777014    0.54658056    0.05200000
opls_185-309    H    0.55998993    0.19608993    0.22928056    0.07150000
opls_185-310    H    0.54760000    0.13872986    0.12084028    0.07150000
opls_185-311    H    0.59506007    0.17592014    0.02763056    0.07150000
opls_185-312    H    0.73533993    0.06978993    0.55146944    0.07150000
opls_185-313    H    0.68382014    0.03631007    0.63173056    0.07150000
opls_185-314    H    0.69943993    0.09197986    0.74731944    0.07150000
opls_146-315    H    0.20342986    0.75732014    0.73149028    0.05200000
opls_146-316    H    0.15722014    0.84497014    0.27450972    0.05200000
opls_146-317    H    0.13868993    0.78893993    0.92845000    0.05200000
opls_146-318    H    0.08602986    0.86756007    0.46178056    0.05200000
opls_144-319    H    0.04301007    0.85871007    0.82851944    0.03070000
opls_146-320    H    0.86345000    0.07438993    0.29344028    0.05200000
opls_146-321    H    0.91001007    0.03025000    0.53350000    0.05200000
opls_146-322    H    0.98850000    0.08530000    0.95101944    0.05210000
opls_146-323    H    0.03435000    0.04731007    0.20576944    0.05200000
opls_282-324    H    0.14657986    0.46318993    0.54390000    0.10580000
opls_282-325    H    0.12978993    0.51296007    0.39320972    0.10580000
opls_282-326    H    0.16358993    0.52333993    0.60964028    0.10580000
opls_282-327    H    0.21603993    0.46002014    0.14184028    0.10580000
opls_282-328    H    0.21732986    0.52463993    0.13800972    0.10580000
opls_282-329    H    0.16072014    0.49347014    0.14445972    0.10580000
opls_282-330    H    0.45237014    0.72537986    0.29980972    0.10580000
opls_282-331    H    0.45426007    0.74555000    0.05426944    0.10580000
opls_282-332    H    0.50917986    0.73802986    0.18729028    0.10590000
opls_282-333    H    0.50831007    0.61595000    0.17494028    0.10580000
opls_282-334    H    0.44796007    0.62396007    0.26188056    0.10580000
opls_282-335    H    0.49655000    0.65732986    0.36793056    0.10580000
opls_282-336    H    0.12708993    0.14442014    0.97105000    0.10590000
opls_282-337    H    0.07608993    0.15706007    0.12166944    0.10590000
opls_282-338    H    0.13361007    0.18321007    0.17623056    0.10580000
opls_282-339    H    0.07852014    0.25373993    0.16585000    0.10580000
opls_282-340    H    0.07892986    0.27975000    0.92914028    0.10580000
opls_282-341    H    0.13470000    0.26743993    0.05029028    0.10580000
opls_282-342    H    0.94190000    0.48383993    0.13330000    0.10580000
opls_282-343    H    0.92197014    0.50543993    0.90301944    0.10580000
opls_282-344    H    0.88787986    0.51906007    0.11584028    0.10580000
opls_282-345    H    0.90702014    0.57766007    0.29411944    0.10580000
opls_282-346    H    0.91147986    0.61522986    0.08448056    0.10580000
opls_282-347    H    0.96077014    0.61191007    0.25119028    0.10580000
opls_146-348    H    0.13862986    0.71158993    0.42275972    0.05200000
opls_146-349    H    0.24712014    0.85222986    0.54658056    0.05200000
opls_185-350    H    0.46067986    0.84701007    0.19494028    0.07150000
opls_185-351    H    0.41550000    0.84608993    0.01009028    0.07150000
opls_185-352    H    0.42117014    0.79616007    0.17271944    0.07150000
opls_185-353    H    0.28057986    0.90162986    0.69591944    0.07150000
opls_185-354    H    0.27660000    0.95102986    0.52993056    0.07150000
opls_185-355    H    0.32422014    0.94926007    0.70465972    0.07150000
opls_146-356    H    0.25732014    0.29657014    0.23149028    0.05200000
opls_146-357    H    0.34497014    0.34277986    0.77450972    0.05200000
opls_146-358    H    0.28893993    0.36131007    0.42845000    0.05200000
opls_146-359    H    0.36756007    0.41397014    0.96178056    0.05200000
opls_144-360    H    0.35871007    0.45698993    0.32851944    0.03070000
opls_146-361    H    0.57438993    0.63655000    0.79344028    0.05200000
opls_146-362    H    0.53025000    0.58998993    0.03350000    0.05200000
opls_146-363    H    0.58530000    0.51150000    0.45101944    0.05200000
opls_146-364    H    0.54731007    0.46565000    0.70576944    0.05200000
opls_282-365    H    0.01757986    0.36871007    0.89955000    0.10580000
opls_282-366    H    0.01920000    0.33523993    0.12065000    0.10590000
opls_282-367    H    0.96271007    0.35608993    0.02655000    0.10580000
opls_282-368    H    0.01087986    0.26938993    0.63770972    0.10580000
opls_282-369    H    0.01185000    0.33401007    0.64296944    0.10580000
opls_282-370    H    0.95540000    0.30252014    0.64363056    0.10580000
opls_282-371    H    0.24681007    0.03890000    0.54391944    0.10580000
opls_282-372    H    0.23568993    0.99177014    0.71520000    0.10590000
opls_282-373    H    0.22646007    0.05351007    0.78225972    0.10580000
opls_282-374    H    0.14047986    0.97931007    0.77280000    0.10580000
opls_282-375    H    0.10757014    0.02857014    0.66940000    0.10580000
opls_282-376    H    0.14918993    0.03930000    0.86255000    0.10580000
opls_282-377    H    0.67340000    0.35243993    0.59975000    0.10580000
opls_282-378    H    0.63872986    0.39782014    0.47869028    0.28780000
opls_282-379    H    0.67257014    0.41295000    0.69051944    0.10580000
opls_282-380    H    0.78111007    0.41397014    0.41793056    0.10580000
opls_282-381    H    0.76432986    0.36616007    0.57849028    0.10580000
opls_282-382    H    0.75550000    0.42772986    0.64885972    0.10580000
opls_282-383    H    0.98238993    0.55356007    0.59548056    0.10580000
opls_282-384    H    0.01103993    0.58697986    0.40614028    0.10580000
opls_282-385    H    0.01490000    0.60771007    0.65055000    0.10580000
opls_282-386    H    0.11583993    0.58753993    0.58375972    0.10580000
opls_282-387    H    0.11122986    0.53932014    0.75495972    0.10580000
opls_282-388    H    0.07772986    0.59386007    0.79106944    0.10580000
opls_146-389    H    0.21158993    0.36137014    0.92275972    0.05200000
opls_146-390    H    0.35222986    0.25287986    0.04658056    0.05200000
opls_185-391    H    0.29616007    0.07903993    0.67188056    0.07150000
opls_185-392    H    0.34677986    0.03928993    0.69568056    0.07150000
opls_185-393    H    0.34632014    0.08432014    0.51019028    0.07150000
opls_185-394    H    0.45097014    0.22345000    0.02991944    0.07150000
opls_185-395    H    0.44932014    0.17578993    0.20444028    0.07150000
opls_185-396    H    0.40162986    0.21936007    0.19615000    0.07150000
opls_146-397    H    0.74267986    0.70342986    0.23149028    0.05200000
opls_146-398    H    0.65502986    0.65722014    0.77450972    0.05200000
opls_146-399    H    0.71106007    0.63868993    0.42845000    0.05200000
opls_146-400    H    0.63243993    0.58602986    0.96178056    0.05200000
opls_144-401    H    0.64128993    0.54301007    0.32851944    0.03070000
opls_146-402    H    0.42561007    0.36345000    0.79344028    0.05200000
opls_146-403    H    0.46975000    0.41001007    0.03350000    0.05200000
opls_146-404    H    0.41470000    0.48850000    0.45101944    0.05200000
opls_146-405    H    0.45268993    0.53435000    0.70576944    0.05200000
opls_282-406    H    0.02947014    0.65592986    0.10026944    0.10580000
opls_282-407    H    0.00527014    0.62713993    0.88996944    0.10580000
opls_282-408    H    0.96577014    0.65688993    0.05650972    0.10580000
opls_282-409    H    0.98818993    0.73007986    0.63770000    0.10580000
opls_282-410    H    0.98907986    0.66546007    0.64306944    0.10580000
opls_282-411    H    0.04460000    0.69855000    0.64354028    0.10580000
opls_282-412    H    0.76848993    0.93581007    0.71246944    0.10580000
opls_282-413    H    0.75197014    0.98213993    0.54470972    0.10580000
opls_282-414    H    0.77057014    0.99787014    0.78420000    0.10580000
opls_282-415    H    0.88846007    0.00026007    0.66230972    0.10580000
opls_282-416    H    0.86960000    0.94743993    0.79080972    0.10580000
opls_282-417    H    0.84470000    0.00512014    0.85163056    0.10580000
opls_282-418    H    0.35566007    0.62688993    0.47086944    0.10580000
opls_282-419    H    0.34281007    0.57611007    0.62235972    0.10580000
opls_282-420    H    0.31682986    0.63377986    0.67573056    0.10580000
opls_282-421    H    0.23686007    0.56097986    0.57744028    0.10580000
opls_282-422    H    0.21852014    0.60850000    0.41825000    0.10580000
opls_282-423    H    0.24367986    0.62267014    0.64959028    0.10580000
opls_282-424    H    0.99618993    0.42442986    0.40429028    0.10580000
opls_282-425    H    0.98001007    0.38706007    0.60509028    0.10580000
opls_282-426    H    0.01547986    0.44027014    0.64279028    0.10580000
opls_282-427    H    0.91658993    0.39395000    0.72100972    0.10580000
opls_282-428    H    0.87572014    0.43270000    0.59405972    0.10580000
opls_282-429    H    0.90288993    0.45262014    0.81471944    0.10580000
opls_146-430    H    0.78841007    0.63862986    0.92275972    0.05200000
opls_146-431    H    0.64777014    0.74712014    0.04658056    0.05200000
opls_185-432    H    0.66885000    0.95882014    0.73140000    0.07150000
opls_185-433    H    0.64187014    0.92845000    0.53026944    0.07150000
opls_185-434    H    0.70001007    0.91007986    0.61608056    0.07150000
opls_185-435    H    0.59196007    0.76722014    0.12873056    0.07150000
opls_185-436    H    0.53630000    0.79412986    0.05328056    0.07150000
opls_185-437    H    0.56982014    0.82005000    0.24850972    0.07150000
opls_146-438    H    0.70342986    0.25732014    0.76850972    0.05200000
opls_146-439    H    0.65722014    0.34497014    0.22549028    0.05200000
opls_146-440    H    0.63868993    0.28893993    0.57155000    0.05200000
opls_146-441    H    0.58602986    0.36756007    0.03821944    0.05200000
opls_144-442    H    0.54301007    0.35871007    0.67148056    0.03070000
opls_146-443    H    0.36345000    0.57438993    0.20655972    0.05200000
opls_146-444    H    0.41001007    0.53025000    0.96650000    0.05200000
opls_146-445    H    0.48850000    0.58530000    0.54898056    0.05200000
opls_146-446    H    0.53435000    0.54731007    0.29423056    0.05200000
opls_282-447    H    0.63941007    0.96355000    0.00398056    0.10580000
opls_282-448    H    0.66597014    0.01113993    0.86498056    0.10580000
opls_282-449    H    0.63457986    0.02480000    0.08429028    0.10580000
opls_282-450    H    0.68006007    0.96001007    0.35520000    0.10580000
opls_282-451    H    0.67868993    0.02462986    0.35880972    0.10590000
opls_282-452    H    0.73532986    0.99348993    0.36166944    0.10580000
opls_282-453    H    0.94977986    0.24442014    0.43520972    0.10580000
opls_282-454    H    0.95707986    0.22487986    0.19048056    0.10580000
opls_282-455    H    0.00896007    0.23967014    0.33293056    0.10580000
opls_282-456    H    0.96602986    0.15225000    0.12848056    0.10580000
opls_282-457    H    0.96557014    0.10882986    0.32003056    0.10580000
opls_282-458    H    0.02121007    0.13616007    0.24674028    0.10580000
opls_282-459    H    0.59523993    0.67765000    0.29413056    0.10580000
opls_282-460    H    0.59293993    0.63947986    0.50256944    0.28810000
opls_282-461    H    0.64860000    0.66756007    0.43434028    0.10580000
opls_282-462    H    0.57737986    0.77935000    0.56746944    0.10580000
opls_282-463    H    0.58011007    0.75341007    0.33089028    0.10580000
opls_282-464    H    0.63466007    0.76817014    0.45635972    0.10580000
opls_282-465    H    0.44607986    0.98706007    0.52020000    0.10580000
opls_282-466    H    0.41392014    0.99922014    0.30128056    0.10580000
opls_282-467    H    0.39175000    0.02203993    0.52635000    0.10580000
opls_282-468    H    0.39202986    0.08856007    0.31530000    0.10580000
opls_282-469    H    0.44526007    0.09065000    0.16889028    0.10580000
opls_282-470    H    0.44197986    0.12558993    0.38601944    0.10580000
opls_146-471    H    0.63862986    0.21158993    0.07724028    0.05200000
opls_146-472    H    0.74712014    0.35222986    0.95341944    0.05200000
opls_185-473    H    0.92488993    0.35560000    0.47745000    0.07150000
opls_185-474    H    0.95996007    0.33542986    0.27579028    0.07150000
opls_185-475    H    0.91250000    0.29823993    0.36900972    0.07150000
opls_185-476    H    0.77142014    0.40426007    0.84471944    0.07150000
opls_185-477    H    0.82293993    0.43773993    0.76445972    0.07150000
opls_185-478    H    0.78703993    0.45992986    0.96030972    0.07150000
opls_146-479    H    0.29657014    0.74267986    0.76850972    0.05200000
opls_146-480    H    0.34277986    0.65502986    0.22549028    0.05200000
opls_146-481    H    0.36131007    0.71106007    0.57155000    0.05200000
opls_146-482    H    0.41397014    0.63243993    0.03821944    0.05200000
opls_144-483    H    0.45698993    0.64128993    0.67148056    0.03070000
opls_146-484    H    0.63655000    0.42561007    0.20655972    0.05200000
opls_146-485    H    0.58998993    0.46975000    0.96650000    0.05200000
opls_146-486    H    0.51150000    0.41470000    0.54898056    0.05200000
opls_146-487    H    0.46565000    0.45268993    0.29423056    0.05200000
opls_282-488    H    0.33647986    0.01330000    0.86204028    0.10580000
opls_282-489    H    0.35327014    0.96352986    0.01274028    0.10580000
opls_282-490    H    0.37028993    0.02367986    0.07846944    0.10580000
opls_282-491    H    0.32127014    0.03922014    0.35514028    0.10580000
opls_282-492    H    0.31997986    0.97460000    0.35895972    0.10580000
opls_282-493    H    0.26467014    0.00805000    0.36158056    0.10580000
opls_282-494    H    0.01038993    0.77291007    0.19335000    0.10580000
opls_282-495    H    0.00850000    0.75273993    0.43889028    0.10580000
opls_282-496    H    0.06530000    0.76538993    0.32638056    0.10580000
opls_282-497    H    0.97941007    0.85912986    0.22538056    0.10580000
opls_282-498    H    0.03976007    0.85112014    0.13844028    0.10580000
opls_282-499    H    0.02801007    0.89250000    0.33143056    0.10580000
opls_282-500    H    0.35157014    0.33392986    0.44236944    0.10580000
opls_282-501    H    0.40256007    0.32128993    0.29175000    0.10580000
opls_282-502    H    0.40908993    0.36007986    0.49693056    0.28810000
opls_282-503    H    0.38417014    0.24578993    0.33229028    0.10580000
opls_282-504    H    0.38375000    0.21978993    0.56899028    0.10580000
opls_282-505    H    0.43992986    0.23348993    0.45344028    0.10580000
opls_282-506    H    0.58747014    0.99987986    0.30158056    0.10580000
opls_282-507    H    0.60740000    0.97827986    0.53185000    0.10580000
opls_282-508    H    0.55337986    0.01350000    0.51440000    0.10580000
opls_282-509    H    0.55862986    0.91202986    0.16461944    0.10580000
opls_282-510    H    0.55417014    0.87446007    0.37425972    0.10580000
opls_282-511    H    0.60792986    0.90872014    0.33133056    0.10580000
opls_146-512    H    0.36137014    0.78841007    0.07724028    0.05210000
opls_146-513    H    0.25287986    0.64777014    0.95341944    0.05200000
opls_185-514    H    0.09577986    0.68750000    0.44310972    0.07150000
opls_185-515    H    0.05627014    0.63665000    0.42089028    0.07150000
opls_185-516    H    0.05060000    0.68657986    0.25825000    0.07150000
opls_185-517    H    0.18901007    0.58307986    0.74291944    0.07150000
opls_185-518    H    0.19297986    0.53367986    0.90891944    0.07160000
opls_185-519    H    0.23662014    0.58132014    0.91765000    0.07150000
opls_146-520    H    0.24267986    0.20342986    0.26850972    0.05200000
opls_146-521    H    0.15502986    0.15722014    0.72549028    0.05200000
opls_146-522    H    0.21106007    0.13868993    0.07155000    0.05210000
opls_146-523    H    0.13243993    0.08602986    0.53821944    0.05200000
opls_144-524    H    0.14128993    0.04301007    0.17148056    0.03070000
opls_146-525    H    0.92561007    0.86345000    0.70655972    0.05200000
opls_146-526    H    0.96975000    0.91001007    0.46650000    0.05200000
opls_146-527    H    0.91470000    0.98850000    0.04898056    0.05200000
opls_146-528    H    0.95268993    0.03435000    0.79423056    0.05200000
opls_282-529    H    0.51952986    0.12855000    0.58948056    0.10580000
opls_282-530    H    0.51792014    0.16202014    0.36838056    0.10580000
opls_282-531    H    0.46305000    0.14940000    0.49539028    0.10580000
opls_282-532    H    0.52642986    0.23006007    0.86009028    0.10580000
opls_282-533    H    0.52546007    0.16545000    0.85484028    0.10580000
opls_282-534    H    0.46997986    0.19857986    0.86075000    0.10580000
opls_282-535    H    0.26305000    0.43565000    0.85428056    0.10580000
opls_282-536    H    0.27417014    0.48277986    0.68300000    0.10590000
opls_282-537    H    0.25382014    0.49738993    0.92134028    0.10580000
opls_282-538    H    0.34273993    0.49712014    0.63290000    0.10580000
opls_282-539    H    0.37565000    0.44785000    0.73630000    0.10580000
opls_282-540    H    0.38436007    0.50785000    0.82604028    0.10580000
opls_282-541    H    0.81560000    0.12235000    0.79939028    0.10580000
opls_282-542    H    0.85027014    0.07696007    0.92044028    0.10580000
opls_282-543    H    0.84942986    0.13747986    0.01120972    0.10590000
opls_282-544    H    0.73037986    0.06092014    0.98163056    0.10580000
opls_282-545    H    0.74715000    0.10872986    0.82108056    0.10580000
opls_282-546    H    0.72153993    0.12248993    0.05200972    0.10580000
opls_282-547    H    0.50548993    0.92147986    0.80469028    0.10580000
opls_282-548    H    0.47683993    0.88806007    0.99404028    0.10580000
opls_282-549    H    0.50935000    0.94221007    0.04910972    0.10580000
opls_282-550    H    0.40802986    0.89217014    0.83510000    0.10580000
opls_282-551    H    0.41263993    0.94038993    0.66390000    0.10580000
opls_282-552    H    0.37452986    0.94671007    0.87120972    0.10580000
opls_146-553    H    0.28841007    0.13862986    0.57724028    0.05200000
opls_146-554    H    0.14777014    0.24712014    0.45341944    0.05200000
opls_185-555    H    0.13665000    0.44393993    0.92004028    0.07150000
opls_185-556    H    0.18681007    0.44922014    0.75835972    0.07150000
opls_185-557    H    0.18727014    0.40418993    0.94385000    0.07150000
opls_185-558    H    0.08137986    0.26338993    0.41743056    0.07150000
opls_185-559    H    0.08302014    0.31105000    0.24290972    0.07150000
opls_185-560    H    0.03367986    0.30696007    0.40914028    0.07150000
opls_146-561    H    0.75732014    0.79657014    0.26850972    0.05200000
opls_146-562    H    0.84497014    0.84277986    0.72549028    0.05200000
opls_146-563    H    0.78893993    0.86131007    0.07155000    0.05200000
opls_146-564    H    0.86756007    0.91397014    0.53821944    0.05200000
opls_144-565    H    0.85871007    0.95698993    0.17148056    0.03070000
opls_146-566    H    0.07438993    0.13655000    0.70655972    0.05200000
opls_146-567    H    0.03025000    0.08998993    0.46650000    0.05200000
opls_146-568    H    0.08530000    0.01150000    0.04898056    0.05200000
opls_146-569    H    0.04731007    0.96565000    0.79423056    0.05200000
opls_282-570    H    0.50492986    0.83383993    0.35880972    0.10580000
opls_282-571    H    0.52912986    0.86262014    0.56910000    0.10580000
opls_282-572    H    0.46542986    0.86357986    0.52534028    0.10580000
opls_282-573    H    0.47450000    0.76940000    0.86019028    0.10580000
opls_282-574    H    0.47361007    0.83402014    0.85483056    0.10580000
opls_282-575    H    0.53002014    0.80250000    0.86066944    0.10580000
opls_282-576    H    0.72462014    0.53826007    0.68379028    0.10580000
opls_282-577    H    0.74112986    0.49192986    0.85155000    0.10580000
opls_282-578    H    0.74321007    0.55400000    0.92328056    0.10580000
opls_282-579    H    0.63442986    0.47888993    0.75430972    0.10580000
opls_282-580    H    0.65328993    0.53172014    0.62580972    0.10580000
opls_282-581    H    0.60952986    0.53657014    0.81511944    0.10580000
opls_282-582    H    0.16593993    0.85158993    0.94305972    0.10580000
opls_282-583    H    0.17880000    0.90237014    0.79155972    0.10590000
opls_282-584    H    0.13996007    0.90926007    0.99641944    0.28810000
opls_282-585    H    0.25247986    0.91372986    0.82140000    0.10580000
opls_282-586    H    0.27082014    0.86621007    0.98058056    0.10580000
opls_282-587    H    0.27762986    0.92791007    0.05274028    0.10580000
opls_282-588    H    0.48556007    0.05256007    0.00365000    0.10580000
opls_282-589    H    0.50173993    0.08992986    0.80284028    0.10580000
opls_282-590    H    0.52102986    0.10577014    0.04134028    0.10580000
opls_282-591    H    0.57892014    0.07985000    0.67420000    0.10580000
opls_282-592    H    0.61978993    0.04111007    0.80115000    0.10580000
opls_282-593    H    0.60608993    0.09977014    0.89485972    0.10580000
opls_146-594    H    0.71158993    0.86137014    0.57724028    0.05200000
opls_146-595    H    0.85222986    0.75287986    0.45341944    0.05200000
opls_185-596    H    0.82836007    0.59392014    0.97955972    0.07150000
opls_185-597    H    0.85952986    0.54517986    0.86425000    0.07150000
opls_185-598    H    0.80137986    0.56355000    0.77844028    0.07150000
opls_185-599    H    0.90423993    0.70652986    0.26626944    0.07150000
opls_185-600    H    0.95991007    0.67962014    0.34171944    0.07150000
opls_185-601    H    0.93777014    0.73245000    0.46150000    0.07150000
opls_750-602    N    0.10110000    0.88950000    0.97530000    -0.26800000
opls_750-603    N    0.89890000    0.11050000    0.97530000    -0.18380000
opls_750-604    N    0.61050000    0.60110000    0.47530000    -0.30420000
opls_750-605    N    0.38950000    0.39890000    0.47530000    -0.26800000
opls_750-606    N    0.39890000    0.61050000    0.52470000    -0.19140000
opls_238-607    N    0.60110000    0.38950000    0.52470000    -0.31690000
opls_750-608    N    0.88950000    0.89890000    0.02470000    -0.19570000
opls_750-609    N    0.11050000    0.10110000    0.02470000    -0.19670000
opls_179-610    O    0.67200000    0.09560000    0.48960000    -0.13130000
opls_179-611    O    0.89160000    0.35720000    0.21650000    -0.13020000
opls_272-612    O    0.76200000    0.51350000    0.47700000    -0.34350000
opls_272-613    O    0.52510000    0.33140000    0.92720000    -0.34350000
opls_272-614    O    0.91390000    0.79580000    0.77710000    -0.34350000
opls_272-615    O    0.00960000    0.44150000    0.00160000    -0.33750000
opls_179-616    O    0.32800000    0.90440000    0.48960000    -0.13130000
opls_179-617    O    0.10840000    0.64280000    0.21650000    -0.13020000
opls_272-618    O    0.23800000    0.48650000    0.47700000    -0.34340000
opls_272-619    O    0.47490000    0.66860000    0.92720000    -0.34350000
opls_272-620    O    0.08610000    0.20420000    0.77710000    -0.34350000
opls_272-621    O    0.99040000    0.55850000    0.00160000    -0.33750000
opls_179-622    O    0.40440000    0.17200000    0.98960000    -0.13130000
opls_179-623    O    0.14280000    0.39160000    0.71650000    -0.13020000
opls_272-624    O    0.98650000    0.26200000    0.97700000    -0.34350000
opls_272-625    O    0.16860000    0.02510000    0.42720000    -0.34350000
opls_272-626    O    0.70420000    0.41390000    0.27710000    -0.34350000
opls_272-627    O    0.05850000    0.50960000    0.50160000    -0.33750000
opls_179-628    O    0.59560000    0.82800000    0.98960000    -0.13130000
opls_179-629    O    0.85720000    0.60840000    0.71650000    -0.13020000
opls_272-630    O    0.01350000    0.73800000    0.97700000    -0.34350000
opls_272-631    O    0.83140000    0.97490000    0.42720000    -0.34340000
opls_272-632    O    0.29580000    0.58610000    0.27710000    -0.34350000
opls_272-633    O    0.94150000    0.49040000    0.50160000    -0.33750000
opls_179-634    O    0.82800000    0.40440000    0.01040000    -0.13130000
opls_179-635    O    0.60840000    0.14280000    0.28350000    -0.13020000
opls_272-636    O    0.73800000    0.98650000    0.02300000    -0.34350000
opls_272-637    O    0.97490000    0.16860000    0.57280000    -0.34350000
opls_272-638    O    0.58610000    0.70420000    0.72290000    -0.34340000
opls_272-639    O    0.49040000    0.05850000    0.49840000    -0.33750000
opls_179-640    O    0.17200000    0.59560000    0.01040000    -0.13130000
opls_179-641    O    0.39160000    0.85720000    0.28350000    -0.13020000
opls_272-642    O    0.26200000    0.01350000    0.02300000    -0.34350000
opls_272-643    O    0.02510000    0.83140000    0.57280000    -0.34350000
opls_272-644    O    0.41390000    0.29580000    0.72290000    -0.34340000
opls_272-645    O    0.50960000    0.94150000    0.49840000    -0.33750000
opls_179-646    O    0.09560000    0.32800000    0.51040000    -0.13130000
opls_179-647    O    0.35720000    0.10840000    0.78350000    -0.13020000
opls_272-648    O    0.51350000    0.23800000    0.52300000    -0.34350000
opls_272-649    O    0.33140000    0.47490000    0.07280000    -0.34350000
opls_272-650    O    0.79580000    0.08610000    0.22290000    -0.34340000
opls_272-651    O    0.44150000    0.99040000    0.99840000    -0.33750000
opls_179-652    O    0.90440000    0.67200000    0.51040000    -0.13130000
opls_179-653    O    0.64280000    0.89160000    0.78350000    -0.13020000
opls_272-654    O    0.48650000    0.76200000    0.52300000    -0.34350000
opls_272-655    O    0.66860000    0.52510000    0.07280000    -0.34350000
opls_272-656    O    0.20420000    0.91390000    0.22290000    -0.34350000
opls_272-657    O    0.55850000    0.00960000    0.99840000    -0.33750000
