#======================================================================
# Crystal Data Generated By AuToFF
#----------------------------------------------------------------------

data_AuToFF_phase_1

_cell_length_a                         37.2373
_cell_length_b                         64.4969
_cell_length_c                         6.2482
_cell_angle_alpha                      90.00
_cell_angle_beta                       90.00
_cell_angle_gamma                      90.00
_symmetry_space_group_name_H-M_alt     'P 1'
_symmetry_space_group_IT_number        1

loop_
_space_group_symop_operation_xyz
   'x, y, z'

loop_
   _atom_site_label
   _atom_site_type_symbol
   _atom_site_fract_x
   _atom_site_fract_y
   _atom_site_fract_z
   _atom_site_charge
opls_700-0    C    0.53326987    0.23884993    0.75000000    0.06360000
opls_700-1    C    0.03326987    0.73884993    0.75000000    0.06360000
opls_700-2    C    0.46673013    0.76115007    0.25000000    0.06360000
opls_700-3    C    0.96673013    0.26115007    0.25000000    0.06360000
opls_700-4    C    0.46673013    0.23884993    0.75000000    0.06360000
opls_700-5    C    0.96673013    0.73884993    0.75000000    0.06360000
opls_700-6    C    0.53326987    0.76115007    0.25000000    0.06360000
opls_700-7    C    0.03326987    0.26115007    0.25000000    0.06360000
opls_700-8    C    0.56877996    0.22700998    0.75000000    0.06410000
opls_700-9    C    0.06877996    0.72700998    0.75000000    0.06410000
opls_700-10    C    0.43122004    0.77299002    0.25000000    0.06410000
opls_700-11    C    0.93122004    0.27299002    0.25000000    0.06410000
opls_700-12    C    0.43122004    0.22700998    0.75000000    0.06410000
opls_700-13    C    0.93122004    0.72700998    0.75000000    0.06410000
opls_700-14    C    0.56877996    0.77299002    0.25000000    0.06410000
opls_700-15    C    0.06877996    0.27299002    0.25000000    0.06410000
opls_700-16    C    0.93122998    0.10615006    0.75000000    0.06370000
opls_700-17    C    0.43122998    0.60615006    0.75000000    0.06370000
opls_700-18    C    0.06877002    0.89384994    0.25000000    0.06370000
opls_700-19    C    0.56877002    0.39384994    0.25000000    0.06370000
opls_700-20    C    0.06877002    0.10615006    0.75000000    0.06370000
opls_700-21    C    0.56877002    0.60615006    0.75000000    0.06370000
opls_700-22    C    0.93122998    0.89384994    0.25000000    0.06370000
opls_700-23    C    0.43122998    0.39384994    0.25000000    0.06370000
opls_700-24    C    0.96669012    0.09428004    0.75000000    0.06360000
opls_700-25    C    0.46669012    0.59428004    0.75000000    0.06360000
opls_700-26    C    0.03330988    0.90571996    0.25000000    0.06360000
opls_700-27    C    0.53330988    0.40571996    0.25000000    0.06360000
opls_700-28    C    0.03330988    0.09428004    0.75000000    0.06360000
opls_700-29    C    0.53330988    0.59428004    0.75000000    0.06360000
opls_700-30    C    0.96669012    0.90571996    0.25000000    0.06360000
opls_700-31    C    0.46669012    0.40571996    0.25000000    0.06360000
opls_145-32    C    0.53232001    0.26073005    0.75000000    -0.16830000
opls_145-33    C    0.03232001    0.76073005    0.75000000    -0.16830000
opls_145-34    C    0.46767999    0.73926995    0.25000000    -0.16830000
opls_145-35    C    0.96767999    0.23926995    0.25000000    -0.16830000
opls_145-36    C    0.46767999    0.26073005    0.75000000    -0.16830000
opls_145-37    C    0.96767999    0.76073005    0.75000000    -0.16830000
opls_145-38    C    0.53232001    0.73926995    0.25000000    -0.16830000
opls_145-39    C    0.03232001    0.23926995    0.25000000    -0.16830000
opls_145-40    C    0.57009987    0.20509001    0.75000000    -0.12540000
opls_145-41    C    0.07009987    0.70509001    0.75000000    -0.12540000
opls_145-42    C    0.42990013    0.79490999    0.25000000    -0.12540000
opls_145-43    C    0.92990013    0.29490999    0.25000000    -0.12540000
opls_145-44    C    0.42990013    0.20509001    0.75000000    -0.12540000
opls_145-45    C    0.92990013    0.70509001    0.75000000    -0.12540000
opls_145-46    C    0.57009987    0.79490999    0.25000000    -0.12540000
opls_145-47    C    0.07009987    0.29490999    0.25000000    -0.12540000
opls_145-48    C    0.60261002    0.19428996    0.75000000    -0.16930000
opls_145-49    C    0.10261002    0.69428996    0.75000000    -0.16930000
opls_145-50    C    0.39738998    0.80571004    0.25000000    -0.16930000
opls_145-51    C    0.89738998    0.30571004    0.25000000    -0.16930000
opls_145-52    C    0.39738998    0.19428996    0.75000000    -0.16930000
opls_145-53    C    0.89738998    0.69428996    0.75000000    -0.16930000
opls_145-54    C    0.60261002    0.80571004    0.25000000    -0.16930000
opls_145-55    C    0.10261002    0.30571004    0.25000000    -0.16930000
opls_700-56    C    0.73253995    0.18557000    0.75000000    -0.06270000
opls_700-57    C    0.23253995    0.68557993    0.75000000    -0.06270000
opls_700-58    C    0.26746005    0.81443000    0.25000000    -0.06270000
opls_700-59    C    0.76746005    0.31443000    0.25000000    -0.06270000
opls_700-60    C    0.26746005    0.18557000    0.75000000    -0.06270000
opls_700-61    C    0.76746005    0.68557993    0.75000000    -0.06270000
opls_700-62    C    0.73253995    0.81443000    0.25000000    -0.06270000
opls_700-63    C    0.23253995    0.31443000    0.25000000    -0.06270000
opls_145-64    C    0.73122004    0.14783997    0.75000000    -0.17450000
opls_145-65    C    0.23122004    0.64783997    0.75000000    -0.17450000
opls_145-66    C    0.26877996    0.85216003    0.25000000    -0.17170000
opls_145-67    C    0.76877996    0.35216003    0.25000000    -0.17170000
opls_145-68    C    0.26877996    0.14783997    0.75000000    -0.17450000
opls_145-69    C    0.76877996    0.64783997    0.75000000    -0.17450000
opls_145-70    C    0.73122004    0.85216003    0.25000000    -0.17170000
opls_145-71    C    0.23122004    0.35216003    0.25000000    -0.17170000
opls_700-72    C    0.76884011    0.14854993    0.75000000    -0.06010000
opls_700-73    C    0.26884011    0.64854993    0.75000000    -0.06010000
opls_700-74    C    0.23115989    0.85145007    0.25000000    -0.06010000
opls_700-75    C    0.73115989    0.35145007    0.25000000    -0.06010000
opls_700-76    C    0.23115989    0.14854993    0.75000000    -0.06010000
opls_700-77    C    0.73115989    0.64854993    0.75000000    -0.06010000
opls_700-78    C    0.76884011    0.85145007    0.25000000    -0.06010000
opls_700-79    C    0.26884011    0.35145007    0.25000000    -0.06010000
opls_234-80    C    0.79569007    0.13221008    0.75000000    0.44600000
opls_234-81    C    0.29569007    0.63221008    0.75000000    0.44600000
opls_234-82    C    0.20430993    0.86778992    0.25000000    0.44600000
opls_234-83    C    0.70430993    0.36778992    0.25000000    0.44600000
opls_234-84    C    0.20430993    0.13221008    0.75000000    0.44600000
opls_234-85    C    0.70430993    0.63221008    0.75000000    0.44600000
opls_234-86    C    0.79569007    0.86778992    0.25000000    0.44600000
opls_234-87    C    0.29569007    0.36778992    0.25000000    0.44600000
opls_145-88    C    0.86523996    0.10682994    0.75000000    -0.16630000
opls_145-89    C    0.36523996    0.60682994    0.75000000    -0.16630000
opls_145-90    C    0.13476004    0.89317006    0.25000000    -0.16630000
opls_145-91    C    0.63476004    0.39317006    0.25000000    -0.16630000
opls_145-92    C    0.13476004    0.10682994    0.75000000    -0.16630000
opls_145-93    C    0.63476004    0.60682994    0.75000000    -0.16630000
opls_145-94    C    0.86523996    0.89317006    0.25000000    -0.16630000
opls_145-95    C    0.36523996    0.39317006    0.25000000    -0.16630000
opls_145-96    C    0.89765987    0.09591004    0.75000000    -0.12610000
opls_145-97    C    0.39765987    0.59591004    0.75000000    -0.12610000
opls_145-98    C    0.10234013    0.90408996    0.25000000    -0.12610000
opls_145-99    C    0.60234013    0.40408996    0.25000000    -0.12610000
opls_145-100    C    0.10234013    0.09591004    0.75000000    -0.12610000
opls_145-101    C    0.60234013    0.59591004    0.75000000    -0.12610000
opls_145-102    C    0.89765987    0.90408996    0.25000000    -0.12610000
opls_145-103    C    0.39765987    0.40408996    0.25000000    -0.12610000
opls_145-104    C    0.53219997    0.32910993    0.75000000    -0.16680000
opls_145-105    C    0.03219997    0.82910993    0.75000000    -0.16680000
opls_145-106    C    0.46780996    0.67089007    0.25000000    -0.16830000
opls_145-107    C    0.96780996    0.17089007    0.25000000    -0.16830000
opls_145-108    C    0.46780996    0.32910993    0.75000000    -0.16680000
opls_145-109    C    0.96780996    0.82910993    0.75000000    -0.16680000
opls_145-110    C    0.53219997    0.67089007    0.25000000    -0.16830000
opls_145-111    C    0.03219997    0.17089007    0.25000000    -0.16830000
opls_234-112    C    0.47063992    0.37659004    0.75000000    0.44600000
opls_234-113    C    0.97063992    0.87659004    0.75000000    0.44600000
opls_234-114    C    0.52936008    0.62340996    0.25000000    0.44600000
opls_234-115    C    0.02936008    0.12340996    0.25000000    0.44600000
opls_234-116    C    0.52936008    0.37659004    0.75000000    0.44600000
opls_234-117    C    0.02936008    0.87659004    0.75000000    0.44600000
opls_234-118    C    0.47063992    0.62340996    0.25000000    0.44600000
opls_234-119    C    0.97063992    0.12340996    0.25000000    0.44600000
opls_700-120    C    0.51848013    0.43501998    0.75000000    -0.06010000
opls_700-121    C    0.01848013    0.93501998    0.75000000    -0.06010000
opls_700-122    C    0.48151987    0.56498002    0.25000000    -0.06010000
opls_700-123    C    0.98151987    0.06498002    0.25000000    -0.06010000
opls_700-124    C    0.48151987    0.43501998    0.75000000    -0.06010000
opls_700-125    C    0.98151987    0.93501998    0.75000000    -0.06010000
opls_700-126    C    0.51848013    0.56498002    0.25000000    -0.06010000
opls_700-127    C    0.01848013    0.06498002    0.25000000    -0.06010000
opls_234-128    C    0.52936008    0.45663993    0.75000000    0.44600000
opls_234-129    C    0.02936008    0.95663993    0.75000000    0.44600000
opls_234-130    C    0.47063992    0.54336007    0.25000000    0.44600000
opls_234-131    C    0.97063992    0.04336007    0.25000000    0.44600000
opls_234-132    C    0.47063992    0.45663993    0.75000000    0.44600000
opls_234-133    C    0.97063992    0.95663993    0.75000000    0.44600000
opls_234-134    C    0.52936008    0.54336007    0.25000000    0.44600000
opls_234-135    C    0.02936008    0.04336007    0.25000000    0.44600000
opls_145-136    C    0.53219004    0.50406996    0.75000000    -0.16930000
opls_145-137    C    0.03219004    0.00406996    0.75000000    -0.16930000
opls_145-138    C    0.46780996    0.49593004    0.25000000    -0.16930000
opls_145-139    C    0.96780996    0.99593004    0.25000000    -0.16930000
opls_145-140    C    0.46780996    0.50406996    0.75000000    -0.16930000
opls_145-141    C    0.96780996    0.00406996    0.75000000    -0.16930000
opls_145-142    C    0.53219004    0.49593004    0.25000000    -0.16930000
opls_145-143    C    0.03219004    0.99593004    0.25000000    -0.16930000
opls_145-144    C    0.53222011    0.52572000    0.75000000    -0.12510000
opls_145-145    C    0.03222011    0.02572000    0.75000000    -0.12510000
opls_145-146    C    0.46777989    0.47428000    0.25000000    -0.12510000
opls_145-147    C    0.96777989    0.97428000    0.25000000    -0.12510000
opls_145-148    C    0.46777989    0.52572000    0.75000000    -0.12510000
opls_145-149    C    0.96777989    0.02572000    0.75000000    -0.12510000
opls_145-150    C    0.53222011    0.47428000    0.25000000    -0.12510000
opls_145-151    C    0.03222011    0.97428000    0.25000000    -0.12510000
opls_145-152    C    0.36522009    0.22648996    0.75000000    -0.16900000
opls_145-153    C    0.86522009    0.72648996    0.75000000    -0.16900000
opls_145-154    C    0.63477991    0.77351004    0.25000000    -0.16900000
opls_145-155    C    0.13477991    0.27351997    0.25000000    -0.16900000
opls_145-156    C    0.63477991    0.22648996    0.75000000    -0.16900000
opls_145-157    C    0.13477991    0.72648996    0.75000000    -0.16900000
opls_145-158    C    0.36522009    0.77351004    0.25000000    -0.16900000
opls_145-159    C    0.86522009    0.27351997    0.25000000    -0.16900000
opls_234-160    C    0.32431997    0.17226999    0.75000000    0.44580000
opls_234-161    C    0.82431997    0.67226999    0.75000000    0.44580000
opls_234-162    C    0.67568003    0.82773001    0.25000000    0.44580000
opls_234-163    C    0.17568003    0.32773001    0.25000000    0.44580000
opls_234-164    C    0.67568003    0.17226999    0.75000000    0.44580000
opls_234-165    C    0.17568003    0.67226999    0.75000000    0.44580000
opls_234-166    C    0.32431997    0.82773001    0.25000000    0.44580000
opls_234-167    C    0.82431997    0.32773001    0.25000000    0.44580000
opls_700-168    C    0.28625008    0.16711005    0.75000000    -0.07070000
opls_700-169    C    0.78625008    0.66711005    0.75000000    -0.07210000
opls_700-170    C    0.71374992    0.83288995    0.25000000    -0.07070000
opls_700-171    C    0.21374992    0.33288995    0.25000000    -0.07070000
opls_700-172    C    0.71374992    0.16711005    0.75000000    -0.07070000
opls_700-173    C    0.21374992    0.66711005    0.75000000    -0.07210000
opls_700-174    C    0.28625008    0.83288995    0.25000000    -0.07070000
opls_700-175    C    0.78625008    0.33288995    0.25000000    -0.07070000
opls_145-176    C    0.22983997    0.18625996    0.75000000    -0.17440000
opls_145-177    C    0.72983997    0.68625996    0.75000000    -0.17440000
opls_145-178    C    0.77016003    0.81374004    0.25000000    -0.17440000
opls_145-179    C    0.27016003    0.31374004    0.25000000    -0.17440000
opls_145-180    C    0.77016003    0.18625996    0.75000000    -0.17440000
opls_145-181    C    0.27016003    0.68625996    0.75000000    -0.17440000
opls_145-182    C    0.22983997    0.81374004    0.25000000    -0.17440000
opls_145-183    C    0.72983997    0.31374004    0.25000000    -0.17440000
opls_700-184    C    0.21248990    0.16697004    0.75000000    -0.06010000
opls_700-185    C    0.71248990    0.66697004    0.75000000    -0.06010000
opls_700-186    C    0.78751010    0.83302996    0.25000000    -0.06010000
opls_700-187    C    0.28751010    0.33302996    0.25000000    -0.06010000
opls_700-188    C    0.78751010    0.16697004    0.75000000    -0.06010000
opls_700-189    C    0.28751010    0.66697004    0.75000000    -0.06010000
opls_700-190    C    0.21248990    0.83302996    0.25000000    -0.06010000
opls_700-191    C    0.71248990    0.33302996    0.25000000    -0.06010000
opls_234-192    C    0.17467002    0.16146001    0.75000000    0.44600000
opls_234-193    C    0.67467002    0.66146001    0.75000000    0.44600000
opls_234-194    C    0.82532998    0.83853999    0.25000000    0.44600000
opls_234-195    C    0.32532998    0.33853999    0.25000000    0.44600000
opls_234-196    C    0.82532998    0.16146001    0.75000000    0.44600000
opls_234-197    C    0.32532998    0.66146001    0.75000000    0.44600000
opls_234-198    C    0.17467002    0.83853999    0.25000000    0.44600000
opls_234-199    C    0.67467002    0.33853999    0.25000000    0.44600000
opls_145-200    C    0.10236000    0.13894993    0.75000000    -0.16680000
opls_145-201    C    0.60236000    0.63894993    0.75000000    -0.16690000
opls_145-202    C    0.89764000    0.86105007    0.25000000    -0.16680000
opls_145-203    C    0.39764000    0.36105007    0.25000000    -0.16680000
opls_145-204    C    0.89764000    0.13894993    0.75000000    -0.16680000
opls_145-205    C    0.39764000    0.63894993    0.75000000    -0.16680000
opls_145-206    C    0.10236000    0.86105007    0.25000000    -0.16680000
opls_145-207    C    0.60236000    0.36105007    0.25000000    -0.16680000
opls_145-208    C    0.06995002    0.12805995    0.75000000    -0.12430000
opls_145-209    C    0.56995002    0.62805995    0.75000000    -0.12430000
opls_145-210    C    0.93004998    0.87194005    0.25000000    -0.12430000
opls_145-211    C    0.43004998    0.37194005    0.25000000    -0.12430000
opls_145-212    C    0.93004998    0.12805995    0.75000000    -0.12430000
opls_145-213    C    0.43004998    0.62805995    0.75000000    -0.12430000
opls_145-214    C    0.06995002    0.87194005    0.25000000    -0.12430000
opls_145-215    C    0.56995002    0.37194005    0.25000000    -0.12430000
opls_145-216    C    0.96763997    0.07242007    0.75000000    -0.16800000
opls_145-217    C    0.46763997    0.57242007    0.75000000    -0.16800000
opls_145-218    C    0.03236003    0.92757993    0.25000000    -0.16800000
opls_145-219    C    0.53236003    0.42757993    0.25000000    -0.16800000
opls_145-220    C    0.03236003    0.07242007    0.75000000    -0.16800000
opls_145-221    C    0.53236003    0.57242007    0.75000000    -0.16800000
opls_145-222    C    0.96763997    0.92757993    0.25000000    -0.16800000
opls_145-223    C    0.46763997    0.42757993    0.25000000    -0.16800000
opls_700-224    C    0.50000000    0.27216006    0.75000000    0.06360000
opls_700-225    C    0.00000000    0.77216006    0.75000000    0.06360000
opls_700-226    C    0.50000000    0.72783994    0.25000000    0.06360000
opls_700-227    C    0.00000000    0.22783994    0.25000000    0.06360000
opls_145-228    C    0.50000000    0.34063994    0.75000000    0.20020000
opls_145-229    C    0.00000000    0.84063994    0.75000000    0.20010000
opls_145-230    C    0.50000000    0.65936006    0.25000000    0.20020000
opls_145-231    C    0.00000000    0.15936006    0.25000000    0.20020000
opls_145-232    C    0.50000000    0.49255995    0.75000000    0.19940000
opls_145-233    C    0.00000000    0.99255995    0.75000000    0.19940000
opls_145-234    C    0.50000000    0.50744005    0.25000000    0.19940000
opls_145-235    C    0.00000000    0.00744005    0.25000000    0.19930000
opls_700-236    C    0.50000000    0.53733001    0.75000000    0.06410000
opls_700-237    C    0.00000000    0.03733001    0.75000000    0.06410000
opls_700-238    C    0.50000000    0.46266999    0.25000000    0.06410000
opls_700-239    C    0.00000000    0.96266999    0.25000000    0.06410000
opls_700-240    C    0.50000000    0.56099999    0.75000000    0.06350000
opls_700-241    C    0.00000000    0.06099999    0.75000000    0.06350000
opls_700-242    C    0.50000000    0.43900001    0.25000000    0.06350000
opls_700-243    C    0.00000000    0.93900001    0.25000000    0.06350000
opls_145-244    C    0.50000000    0.22839997    0.75000000    -0.13660000
opls_145-245    C    0.00000000    0.72839997    0.75000000    -0.13660000
opls_145-246    C    0.50000000    0.77160003    0.25000000    -0.13660000
opls_145-247    C    0.00000000    0.27160003    0.25000000    -0.13660000
opls_145-248    C    0.50000000    0.39527993    0.25000000    -0.15700000
opls_145-249    C    0.00000000    0.89527993    0.25000000    -0.15700000
opls_145-250    C    0.50000000    0.60472007    0.75000000    -0.15700000
opls_145-251    C    0.00000000    0.10472007    0.75000000    -0.15700000
opls_700-252    C    0.50000000    0.70416004    0.25000000    0.06410000
opls_700-253    C    0.00000000    0.20416004    0.25000000    0.06410000
opls_700-254    C    0.50000000    0.29583996    0.75000000    0.06410000
opls_700-255    C    0.00000000    0.79583996    0.75000000    0.06410000
opls_145-256    C    0.13580013    0.87130994    0.25000000    0.20020000
opls_145-257    C    0.63580013    0.37130994    0.25000000    0.20020000
opls_145-258    C    0.86419987    0.12869006    0.75000000    0.20020000
opls_145-259    C    0.36419987    0.62869006    0.75000000    0.20020000
opls_145-260    C    0.86419987    0.87130994    0.25000000    0.20020000
opls_145-261    C    0.36419987    0.37130994    0.25000000    0.20020000
opls_145-262    C    0.13580013    0.12869006    0.75000000    0.20020000
opls_145-263    C    0.63580013    0.62869006    0.75000000    0.20020000
opls_234-264    C    0.29405005    0.79800998    0.25000000    0.42970000
opls_234-265    C    0.79405005    0.29800998    0.25000000    0.42970000
opls_234-266    C    0.70594995    0.20199002    0.75000000    0.42970000
opls_234-267    C    0.20594995    0.70199002    0.75000000    0.42680000
opls_234-268    C    0.70594995    0.79800998    0.25000000    0.42970000
opls_234-269    C    0.20594995    0.29800998    0.25000000    0.42970000
opls_234-270    C    0.29405005    0.20199002    0.75000000    0.42970000
opls_234-271    C    0.79405005    0.70199002    0.75000000    0.42680000
opls_145-272    C    0.36412012    0.79531993    0.25000000    0.18720000
opls_145-273    C    0.86412012    0.29531993    0.25000000    0.18660000
opls_145-274    C    0.63587988    0.20468007    0.75000000    0.18720000
opls_145-275    C    0.13587988    0.70468007    0.75000000    0.18720000
opls_145-276    C    0.63587988    0.79531993    0.25000000    0.18720000
opls_145-277    C    0.13587988    0.29531993    0.25000000    0.18660000
opls_145-278    C    0.36412012    0.20468007    0.75000000    0.18720000
opls_145-279    C    0.86412012    0.70468007    0.75000000    0.18720000
opls_145-280    C    0.39768001    0.76266007    0.25000000    -0.12760000
opls_145-281    C    0.89768001    0.26266007    0.25000000    -0.12810000
opls_145-282    C    0.60231999    0.23733993    0.75000000    -0.12760000
opls_145-283    C    0.10231999    0.73733993    0.75000000    -0.12760000
opls_145-284    C    0.60231999    0.76266007    0.25000000    -0.12760000
opls_145-285    C    0.10231999    0.26266007    0.25000000    -0.12800000
opls_145-286    C    0.39768001    0.23733993    0.75000000    -0.12760000
opls_145-287    C    0.89768001    0.73733993    0.75000000    -0.12760000
opls_145-288    C    0.46776995    0.69255003    0.25000000    -0.12610000
opls_145-289    C    0.96776995    0.19255003    0.25000000    -0.12610000
opls_145-290    C    0.53223005    0.30746005    0.75000000    -0.12610000
opls_145-291    C    0.03223005    0.80746005    0.75000000    -0.12610000
opls_145-292    C    0.53223005    0.69255003    0.25000000    -0.12610000
opls_145-293    C    0.03223005    0.19255003    0.25000000    -0.12620000
opls_145-294    C    0.46776995    0.30746005    0.75000000    -0.12610000
opls_145-295    C    0.96776995    0.80746005    0.75000000    -0.12610000
opls_145-296    C    0.46144001    0.58337998    0.25000000    -0.16490000
opls_145-297    C    0.96144001    0.08337998    0.25000000    -0.16480000
opls_145-298    C    0.53855999    0.41662002    0.75000000    -0.16480000
opls_145-299    C    0.03855999    0.91662002    0.75000000    -0.16480000
opls_145-300    C    0.53855999    0.58337998    0.25000000    -0.16480000
opls_145-301    C    0.03855999    0.08337998    0.25000000    -0.16480000
opls_145-302    C    0.46144001    0.41662002    0.75000000    -0.16480000
opls_145-303    C    0.96144001    0.91662002    0.75000000    -0.16480000
opls_700-304    C    0.48151987    0.60179001    0.25000000    -0.06020000
opls_700-305    C    0.98151987    0.10179001    0.25000000    -0.06020000
opls_700-306    C    0.51848013    0.39820999    0.75000000    -0.06020000
opls_700-307    C    0.01848013    0.89820999    0.75000000    -0.06020000
opls_700-308    C    0.51848013    0.60179001    0.25000000    -0.06020000
opls_700-309    C    0.01848013    0.10179001    0.25000000    -0.06020000
opls_700-310    C    0.48151987    0.39820999    0.75000000    -0.06020000
opls_700-311    C    0.98151987    0.89820999    0.75000000    -0.06020000
opls_236-312    O    0.71338013    0.22036005    0.75000000    -0.37560000
opls_236-313    O    0.21338013    0.72036005    0.75000000    -0.37560000
opls_236-314    O    0.28661987    0.77963995    0.25000000    -0.37560000
opls_236-315    O    0.78661987    0.27963995    0.25000000    -0.37560000
opls_236-316    O    0.28661987    0.22036005    0.75000000    -0.37560000
opls_236-317    O    0.78661987    0.72036005    0.75000000    -0.37560000
opls_236-318    O    0.71338013    0.77963995    0.25000000    -0.37560000
opls_236-319    O    0.21338013    0.27963995    0.25000000    -0.37560000
opls_236-320    O    0.78815005    0.11386005    0.75000000    -0.37420000
opls_236-321    O    0.28815005    0.61386005    0.75000000    -0.37430000
opls_236-322    O    0.21184995    0.88613995    0.25000000    -0.37420000
opls_236-323    O    0.71184995    0.38613995    0.25000000    -0.37420000
opls_236-324    O    0.21184995    0.11386005    0.75000000    -0.37420000
opls_236-325    O    0.71184995    0.61386005    0.75000000    -0.37420000
opls_236-326    O    0.78815005    0.88613995    0.25000000    -0.37420000
opls_236-327    O    0.28815005    0.38613995    0.25000000    -0.37420000
opls_236-328    O    0.43940001    0.37108993    0.75000000    -0.36920000
opls_236-329    O    0.93940001    0.87108993    0.75000000    -0.36920000
opls_236-330    O    0.56059999    0.62891007    0.25000000    -0.36920000
opls_236-331    O    0.06059999    0.12891007    0.25000000    -0.36920000
opls_236-332    O    0.56059999    0.37108993    0.75000000    -0.36930000
opls_236-333    O    0.06059999    0.87108993    0.75000000    -0.36920000
opls_236-334    O    0.43940001    0.62891007    0.25000000    -0.36920000
opls_236-335    O    0.93940001    0.12891007    0.25000000    -0.36920000
opls_236-336    O    0.56059999    0.46214004    0.75000000    -0.36920000
opls_236-337    O    0.06059999    0.96214004    0.75000000    -0.36920000
opls_236-338    O    0.43940001    0.53785996    0.25000000    -0.36920000
opls_236-339    O    0.93940001    0.03785996    0.25000000    -0.36920000
opls_236-340    O    0.43940001    0.46214004    0.75000000    -0.36920000
opls_236-341    O    0.93940001    0.96214004    0.75000000    -0.36920000
opls_236-342    O    0.56059999    0.53785996    0.25000000    -0.36920000
opls_236-343    O    0.06059999    0.03785996    0.25000000    -0.36920000
opls_236-344    O    0.34792990    0.15924006    0.75000000    -0.37360000
opls_236-345    O    0.84792990    0.65924006    0.75000000    -0.37360000
opls_236-346    O    0.65207010    0.84075994    0.25000000    -0.37360000
opls_236-347    O    0.15207010    0.34075994    0.25000000    -0.37360000
opls_236-348    O    0.65207010    0.15924006    0.75000000    -0.37360000
opls_236-349    O    0.15207010    0.65924006    0.75000000    -0.37360000
opls_236-350    O    0.34792990    0.84075994    0.25000000    -0.37370000
opls_236-351    O    0.84792990    0.34075994    0.25000000    -0.37360000
opls_236-352    O    0.15068010    0.17426000    0.75000000    -0.37420000
opls_236-353    O    0.65068010    0.67426000    0.75000000    -0.37420000
opls_236-354    O    0.84931990    0.82574000    0.25000000    -0.37420000
opls_236-355    O    0.34931990    0.32574000    0.25000000    -0.37420000
opls_236-356    O    0.84931990    0.17426000    0.75000000    -0.37420000
opls_236-357    O    0.34931990    0.67426000    0.75000000    -0.37420000
opls_236-358    O    0.15068010    0.82574000    0.25000000    -0.37420000
opls_236-359    O    0.65068010    0.32574000    0.25000000    -0.37420000
opls_542-360    N    0.83017002    0.14018999    0.75000000    -0.19210000
opls_542-361    N    0.33017002    0.64018999    0.75000000    -0.19210000
opls_542-362    N    0.16982998    0.85981001    0.25000000    -0.19210000
opls_542-363    N    0.66982998    0.35981001    0.25000000    -0.19210000
opls_542-364    N    0.16982998    0.14018999    0.75000000    -0.19210000
opls_542-365    N    0.66982998    0.64018999    0.75000000    -0.19210000
opls_542-366    N    0.83017002    0.85981001    0.25000000    -0.19210000
opls_542-367    N    0.33017002    0.35981001    0.25000000    -0.19210000
opls_542-368    N    0.50000000    0.36341995    0.75000000    -0.19390000
opls_542-369    N    0.00000000    0.86341995    0.75000000    -0.19390000
opls_542-370    N    0.50000000    0.63658005    0.25000000    -0.19390000
opls_542-371    N    0.00000000    0.13658005    0.25000000    -0.19390000
opls_542-372    N    0.50000000    0.46979994    0.75000000    -0.19240000
opls_542-373    N    0.00000000    0.96979994    0.75000000    -0.19240000
opls_542-374    N    0.50000000    0.53020006    0.25000000    -0.19240000
opls_542-375    N    0.00000000    0.03020006    0.25000000    -0.19240000
opls_542-376    N    0.32997989    0.80654993    0.25000000    -0.21100000
opls_542-377    N    0.82997989    0.30654993    0.25000000    -0.21100000
opls_542-378    N    0.67002011    0.19345007    0.75000000    -0.21110000
opls_542-379    N    0.17002011    0.69345007    0.75000000    -0.21100000
opls_542-380    N    0.67002011    0.80654993    0.25000000    -0.21100000
opls_542-381    N    0.17002011    0.30654993    0.25000000    -0.21100000
opls_542-382    N    0.32997989    0.19345007    0.75000000    -0.21100000
opls_542-383    N    0.82997989    0.69345007    0.75000000    -0.21100000
opls_146-384    H    0.54649988    0.19551002    0.75000000    0.09800000
opls_146-385    H    0.04649988    0.69551002    0.75000000    0.09800000
opls_146-386    H    0.45350012    0.80448998    0.25000000    0.09800000
opls_146-387    H    0.95350012    0.30448998    0.25000000    0.09800000
opls_146-388    H    0.45350012    0.19551002    0.75000000    0.09800000
opls_146-389    H    0.95350012    0.69551002    0.75000000    0.09800000
opls_146-390    H    0.54649988    0.80448998    0.25000000    0.09800000
opls_146-391    H    0.04649988    0.30448998    0.25000000    0.09800000
opls_146-392    H    0.60051991    0.17768994    0.75000000    0.09800000
opls_146-393    H    0.10051991    0.67768994    0.75000000    0.09800000
opls_146-394    H    0.39948009    0.82231006    0.25000000    0.09800000
opls_146-395    H    0.89948009    0.32231006    0.25000000    0.09800000
opls_146-396    H    0.39948009    0.17768994    0.75000000    0.09800000
opls_146-397    H    0.89948009    0.67768994    0.75000000    0.09800000
opls_146-398    H    0.60051991    0.82231006    0.25000000    0.09800000
opls_146-399    H    0.10051991    0.32231006    0.25000000    0.09800000
opls_146-400    H    0.71659009    0.13336005    0.75000000    0.12270000
opls_146-401    H    0.21659009    0.63336005    0.75000000    0.12270000
opls_146-402    H    0.28340991    0.86665003    0.25000000    0.11860000
opls_146-403    H    0.78340991    0.36665003    0.25000000    0.11860000
opls_146-404    H    0.28340991    0.13336005    0.75000000    0.12270000
opls_146-405    H    0.78340991    0.63336005    0.75000000    0.12270000
opls_146-406    H    0.71659009    0.86665003    0.25000000    0.11860000
opls_146-407    H    0.21659009    0.36665003    0.25000000    0.11860000
opls_146-408    H    0.84143990    0.09746003    0.75000000    0.10850000
opls_146-409    H    0.34143990    0.59746003    0.75000000    0.10850000
opls_146-410    H    0.15856010    0.90253997    0.25000000    0.10850000
opls_146-411    H    0.65856010    0.40253997    0.25000000    0.10850000
opls_146-412    H    0.15856010    0.09746003    0.75000000    0.10850000
opls_146-413    H    0.65856010    0.59746003    0.75000000    0.10850000
opls_146-414    H    0.84143990    0.90253997    0.25000000    0.10850000
opls_146-415    H    0.34143990    0.40253997    0.25000000    0.10850000
opls_146-416    H    0.89503992    0.07931994    0.75000000    0.09800000
opls_146-417    H    0.39503992    0.57931994    0.75000000    0.09800000
opls_146-418    H    0.10496008    0.92068006    0.25000000    0.09800000
opls_146-419    H    0.60496008    0.42068006    0.25000000    0.09800000
opls_146-420    H    0.10496008    0.07931994    0.75000000    0.09800000
opls_146-421    H    0.60496008    0.57931994    0.75000000    0.09800000
opls_146-422    H    0.89503992    0.92068006    0.25000000    0.09800000
opls_146-423    H    0.39503992    0.42068006    0.25000000    0.09800000
opls_146-424    H    0.55819998    0.33626996    0.75000000    0.10850000
opls_146-425    H    0.05819998    0.83626996    0.75000000    0.10850000
opls_146-426    H    0.44180002    0.66373996    0.25000000    0.10850000
opls_146-427    H    0.94180002    0.16373996    0.25000000    0.10850000
opls_146-428    H    0.44180002    0.33626996    0.75000000    0.10850000
opls_146-429    H    0.94180002    0.83626996    0.75000000    0.10850000
opls_146-430    H    0.55819998    0.66373996    0.25000000    0.10850000
opls_146-431    H    0.05819998    0.16373996    0.25000000    0.10850000
opls_146-432    H    0.55819998    0.49692993    0.75000000    0.10850000
opls_146-433    H    0.05819998    0.99692993    0.75000000    0.10850000
opls_146-434    H    0.44180002    0.50307007    0.25000000    0.10850000
opls_146-435    H    0.94180002    0.00307007    0.25000000    0.10850000
opls_146-436    H    0.44180002    0.49692993    0.75000000    0.10850000
opls_146-437    H    0.94180002    0.99692993    0.75000000    0.10850000
opls_146-438    H    0.55819998    0.50307007    0.25000000    0.10850000
opls_146-439    H    0.05819998    0.00307007    0.25000000    0.10850000
opls_146-440    H    0.05839011    0.03272995    0.75000000    0.09800000
opls_146-441    H    0.55839011    0.53272995    0.75000000    0.09800000
opls_146-442    H    0.94160989    0.96727005    0.25000000    0.09800000
opls_146-443    H    0.44160989    0.46727005    0.25000000    0.09800000
opls_146-444    H    0.94160989    0.03272995    0.75000000    0.09800000
opls_146-445    H    0.44160989    0.53272995    0.75000000    0.09800000
opls_146-446    H    0.05839011    0.96727005    0.25000000    0.09800000
opls_146-447    H    0.55839011    0.46727005    0.25000000    0.09800000
opls_146-448    H    0.34133006    0.23580002    0.75000000    0.10850000
opls_146-449    H    0.84133006    0.73580002    0.75000000    0.10850000
opls_146-450    H    0.65866994    0.76419998    0.25000000    0.10850000
opls_146-451    H    0.15866994    0.26419998    0.25000000    0.09800000
opls_146-452    H    0.65866994    0.23580002    0.75000000    0.10850000
opls_146-453    H    0.15866994    0.73580002    0.75000000    0.10850000
opls_146-454    H    0.34133006    0.76419998    0.25000000    0.10850000
opls_146-455    H    0.84133006    0.26419998    0.25000000    0.09800000
opls_146-456    H    0.21513993    0.20072996    0.75000000    0.12190000
opls_146-457    H    0.71513993    0.70072996    0.75000000    0.12190000
opls_146-458    H    0.78486007    0.79927004    0.25000000    0.12190000
opls_146-459    H    0.28486007    0.29927004    0.25000000    0.12190000
opls_146-460    H    0.78486007    0.20072996    0.75000000    0.12190000
opls_146-461    H    0.28486007    0.70072996    0.75000000    0.12190000
opls_146-462    H    0.21513993    0.79927004    0.25000000    0.12180000
opls_146-463    H    0.71513993    0.29927004    0.25000000    0.12190000
opls_146-464    H    0.09991997    0.15552003    0.75000000    0.10850000
opls_146-465    H    0.59991997    0.65552003    0.75000000    0.10850000
opls_146-466    H    0.90008003    0.84447997    0.25000000    0.10850000
opls_146-467    H    0.40008003    0.34447997    0.25000000    0.10850000
opls_146-468    H    0.90008003    0.15552003    0.75000000    0.10850000
opls_146-469    H    0.40008003    0.65552003    0.75000000    0.10850000
opls_146-470    H    0.09991997    0.84447997    0.25000000    0.10850000
opls_146-471    H    0.59991997    0.34447997    0.25000000    0.10850000
opls_146-472    H    0.55694989    0.26894006    0.75000000    0.24960000
opls_146-473    H    0.05694989    0.76894006    0.75000000    0.24960000
opls_146-474    H    0.44305011    0.73105994    0.25000000    0.24960000
opls_146-475    H    0.94305011    0.23105994    0.25000000    0.24960000
opls_146-476    H    0.44305011    0.26894006    0.75000000    0.24960000
opls_146-477    H    0.94305011    0.76894006    0.75000000    0.24960000
opls_146-478    H    0.55694989    0.73105994    0.25000000    0.24960000
opls_146-479    H    0.05694989    0.23105994    0.25000000    0.24960000
opls_146-480    H    0.04631995    0.13761995    0.75000000    0.09800000
opls_146-481    H    0.54631995    0.63761995    0.75000000    0.09800000
opls_146-482    H    0.95368005    0.86238005    0.25000000    0.09800000
opls_146-483    H    0.45368005    0.36238005    0.25000000    0.09800000
opls_146-484    H    0.95368005    0.13761995    0.75000000    0.09800000
opls_146-485    H    0.45368005    0.63761995    0.75000000    0.09800000
opls_146-486    H    0.04631995    0.86238005    0.25000000    0.09800000
opls_146-487    H    0.54631995    0.36238005    0.25000000    0.09800000
opls_146-488    H    0.94299990    0.06421999    0.75000000    0.24960000
opls_146-489    H    0.44299990    0.56421999    0.75000000    0.24960000
opls_146-490    H    0.05700010    0.93578001    0.25000000    0.24960000
opls_146-491    H    0.55700010    0.43578001    0.25000000    0.24960000
opls_146-492    H    0.05700010    0.06421999    0.75000000    0.24960000
opls_146-493    H    0.55700010    0.56421999    0.75000000    0.24960000
opls_146-494    H    0.94299990    0.93578001    0.25000000    0.24960000
opls_146-495    H    0.44299990    0.43578001    0.25000000    0.24960000
opls_146-496    H    0.50000000    0.21197996    0.75000000    0.24960000
opls_146-497    H    0.00000000    0.71197996    0.75000000    0.24960000
opls_146-498    H    0.50000000    0.78802004    0.25000000    0.24960000
opls_146-499    H    0.00000000    0.28802004    0.25000000    0.24960000
opls_146-500    H    0.50000000    0.37888007    0.25000000    0.24860000
opls_146-501    H    0.00000000    0.87888007    0.25000000    0.24870000
opls_146-502    H    0.50000000    0.62111993    0.75000000    0.24870000
opls_146-503    H    0.00000000    0.12111993    0.75000000    0.24870000
opls_146-504    H    0.39510007    0.74606997    0.25000000    0.09800000
opls_146-505    H    0.89510007    0.24606997    0.25000000    0.09800000
opls_146-506    H    0.60489993    0.25393003    0.75000000    0.09800000
opls_146-507    H    0.10489993    0.75393003    0.75000000    0.09800000
opls_146-508    H    0.60489993    0.74606997    0.25000000    0.09800000
opls_146-509    H    0.10489993    0.24606997    0.25000000    0.09800000
opls_146-510    H    0.39510007    0.25393003    0.75000000    0.09800000
opls_146-511    H    0.89510007    0.75393003    0.75000000    0.09800000
opls_146-512    H    0.44160989    0.69957006    0.25000000    0.09800000
opls_146-513    H    0.94160989    0.19957006    0.25000000    0.09800000
opls_146-514    H    0.55839011    0.30042994    0.75000000    0.09790000
opls_146-515    H    0.05839011    0.80042994    0.75000000    0.09790000
opls_146-516    H    0.55839011    0.69957006    0.25000000    0.09800000
opls_146-517    H    0.05839011    0.19957006    0.25000000    0.09800000
opls_146-518    H    0.44160989    0.30042994    0.75000000    0.09790000
opls_146-519    H    0.94160989    0.80042994    0.75000000    0.09790000
opls_146-520    H    0.43240004    0.58337998    0.25000000    0.11980000
opls_146-521    H    0.93240004    0.08337998    0.25000000    0.11980000
opls_146-522    H    0.56759996    0.41662002    0.75000000    0.11980000
opls_146-523    H    0.06759996    0.91662002    0.75000000    0.11980000
opls_146-524    H    0.56759996    0.58337998    0.25000000    0.11980000
opls_146-525    H    0.06759996    0.08337998    0.25000000    0.11980000
opls_146-526    H    0.43240004    0.41662002    0.75000000    0.11980000
opls_146-527    H    0.93240004    0.91662002    0.75000000    0.11980000
