#======================================================================
# Crystal Data Generated By AuToFF
#----------------------------------------------------------------------

data_AuToFF_phase_1

_cell_length_a                         43.9123
_cell_length_b                         43.9123
_cell_length_c                         5.4124
_cell_angle_alpha                      90.00
_cell_angle_beta                       90.00
_cell_angle_gamma                      90.00
_symmetry_space_group_name_H-M_alt     'P 1'
_symmetry_space_group_IT_number        1

loop_
_space_group_symop_operation_xyz
   'x, y, z'

loop_
   _atom_site_label
   _atom_site_type_symbol
   _atom_site_fract_x
   _atom_site_fract_y
   _atom_site_fract_z
   _atom_site_charge
opls_145-0    C    0.77054994    0.77749993    0.96173971    -0.08110000
opls_145-1    C    0.79135003    0.77747009    0.15649065    -0.09960000
opls_700-2    C    0.86345990    0.77775999    0.90618025    0.01530000
opls_145-3    C    0.88498006    0.77744003    0.09696992    -0.08850000
opls_145-4    C    0.92996996    0.72283005    0.49245067    -0.09960000
opls_145-5    C    0.95605992    0.72290998    0.64034994    -0.08120000
opls_145-6    C    0.97291010    0.29393997    0.89034070    -0.08120000
opls_145-7    C    0.97282994    0.32002992    0.74243035    -0.09960000
opls_145-8    C    0.02743992    0.36503007    0.34696992    -0.08850000
opls_700-9    C    0.02776010    0.38653999    0.15618025    0.01530000
opls_145-10    C    0.97253002    0.45865008    0.40649065    -0.09960000
opls_145-11    C    0.97249996    0.47944995    0.21173971    -0.08110000
opls_515-12    C    0.14747007    0.19236000    0.19616067    0.06540000
opls_135-13    C    0.16030998    0.17188009    0.99745030    -0.35730000
opls_135-14    C    0.12204007    0.17586007    0.32931047    -0.35710000
opls_515-15    C    0.94236011    0.39746996    0.05383933    0.06540000
opls_135-16    C    0.92585995    0.37203995    0.92068029    -0.35730000
opls_135-17    C    0.92187997    0.41031010    0.25254970    -0.35730000
opls_700-18    C    0.80202996    0.74999989    0.25390954    0.01470000
opls_700-19    C    0.76030998    0.74999989    0.85844912    0.07000000
opls_261-20    C    0.82856011    0.74999989    0.41872921    0.26210000
opls_700-21    C    0.89527991    0.74999989    0.19936997    0.08010000
opls_145-22    C    0.85183992    0.74999989    0.81469034    0.13470000
opls_700-23    C    0.97083004    0.74999989    0.70904959    0.05120000
opls_700-24    C    0.91781004    0.74999989    0.40329059    0.07770000
opls_701-25    C    0.00000000    0.74999989    0.87500924    0.03600000
opls_700-26    C    0.00000000    0.33219007    0.65327951    0.07780000
opls_700-27    C    0.00000000    0.27917007    0.95902927    0.05120000
opls_145-28    C    0.00000000    0.39815997    0.06469034    0.13470000
opls_700-29    C    0.00000000    0.35471998    0.44936997    0.08080000
opls_700-30    C    0.00000000    0.48968990    0.10844912    0.07000000
opls_700-31    C    0.00000000    0.44796993    0.50390954    0.01460000
opls_261-32    C    0.00000000    0.57854997    0.33127079    0.26240000
opls_145-33    C    0.22945006    0.72250007    0.96173971    -0.08110000
opls_145-34    C    0.20864997    0.72252991    0.15649065    -0.09960000
opls_700-35    C    0.13654010    0.72224001    0.90618025    0.01530000
opls_145-36    C    0.11501994    0.72255997    0.09696992    -0.08850000
opls_145-37    C    0.07003004    0.77716995    0.49245067    -0.09960000
opls_145-38    C    0.04394008    0.77709002    0.64034994    -0.08120000
opls_145-39    C    0.02708990    0.20606003    0.89034070    -0.08120000
opls_145-40    C    0.02717006    0.17997008    0.74243035    -0.09960000
opls_145-41    C    0.97256008    0.13496993    0.34696992    -0.08850000
opls_700-42    C    0.97223990    0.11346001    0.15618025    0.01530000
opls_145-43    C    0.02746998    0.04134992    0.40649065    -0.09960000
opls_145-44    C    0.02750004    0.02055005    0.21173971    -0.08110000
opls_515-45    C    0.85252993    0.30764000    0.19616067    0.06540000
opls_135-46    C    0.83969002    0.32811991    0.99745030    -0.35720000
opls_135-47    C    0.87795993    0.32413993    0.32931047    -0.35720000
opls_515-48    C    0.05763989    0.10253004    0.05383933    0.06540000
opls_135-49    C    0.07414005    0.12796005    0.92068029    -0.35720000
opls_135-50    C    0.07812003    0.08968990    0.25254970    -0.35730000
opls_700-51    C    0.19797004    0.74999989    0.25390954    0.01470000
opls_700-52    C    0.23969002    0.74999989    0.85844912    0.07000000
opls_261-53    C    0.17143989    0.74999989    0.41872921    0.26210000
opls_700-54    C    0.10472009    0.74999989    0.19936997    0.08010000
opls_145-55    C    0.14816008    0.74999989    0.81469034    0.13470000
opls_700-56    C    0.02916996    0.74999989    0.70904959    0.05120000
opls_700-57    C    0.08218996    0.74999989    0.40329059    0.07770000
opls_700-58    C    0.00000000    0.16780993    0.65327951    0.07770000
opls_700-59    C    0.00000000    0.22082993    0.95902927    0.05130000
opls_145-60    C    0.00000000    0.10184003    0.06469034    0.13470000
opls_700-61    C    0.00000000    0.14528002    0.44936997    0.08080000
opls_700-62    C    0.00000000    0.01031010    0.10844912    0.07000000
opls_700-63    C    0.00000000    0.05203007    0.50390954    0.01460000
opls_261-64    C    0.00000000    0.92145003    0.33127079    0.26250000
opls_145-65    C    0.22945006    0.27749993    0.03826029    -0.08110000
opls_145-66    C    0.20864997    0.27747009    0.84350935    -0.09950000
opls_700-67    C    0.13654010    0.27775999    0.09381975    0.01530000
opls_145-68    C    0.11501994    0.27744003    0.90303008    -0.08840000
opls_145-69    C    0.07003004    0.22283005    0.50754933    -0.09960000
opls_145-70    C    0.04394008    0.22290998    0.35965006    -0.08120000
opls_145-71    C    0.02708990    0.79393997    0.10965930    -0.08120000
opls_145-72    C    0.02717006    0.82002992    0.25756965    -0.09960000
opls_145-73    C    0.97256008    0.86503007    0.65303008    -0.08840000
opls_700-74    C    0.97223990    0.88653999    0.84381975    0.01530000
opls_145-75    C    0.02746998    0.95865008    0.59350935    -0.09960000
opls_145-76    C    0.02750004    0.97944995    0.78826029    -0.08110000
opls_515-77    C    0.85252993    0.69236000    0.80383933    0.06540000
opls_135-78    C    0.83969002    0.67188009    0.00254970    -0.35720000
opls_135-79    C    0.87795993    0.67586007    0.67068953    -0.35730000
opls_515-80    C    0.05763989    0.89746996    0.94616067    0.06540000
opls_135-81    C    0.07414005    0.87203995    0.07931971    -0.35710000
opls_135-82    C    0.07812003    0.91031010    0.74745030    -0.35720000
opls_700-83    C    0.19797004    0.25000011    0.74609046    0.01470000
opls_700-84    C    0.23969002    0.25000011    0.14155088    0.07000000
opls_261-85    C    0.17143989    0.25000011    0.58127079    0.26210000
opls_700-86    C    0.10472009    0.25000011    0.80063003    0.08020000
opls_145-87    C    0.14816008    0.25000011    0.18530966    0.13470000
opls_700-88    C    0.02916996    0.25000011    0.29095041    0.05120000
opls_700-89    C    0.08218996    0.25000011    0.59670941    0.07770000
opls_701-90    C    0.00000000    0.25000011    0.12499076    0.03600000
opls_700-91    C    0.00000000    0.83219007    0.34672049    0.07770000
opls_700-92    C    0.00000000    0.77917007    0.04097073    0.05120000
opls_145-93    C    0.00000000    0.89815997    0.93530966    0.13470000
opls_700-94    C    0.00000000    0.85471998    0.55063003    0.08080000
opls_700-95    C    0.00000000    0.98968990    0.89155088    0.07000000
opls_700-96    C    0.00000000    0.94796993    0.49609046    0.01460000
opls_261-97    C    0.00000000    0.07854997    0.66872921    0.26250000
opls_145-98    C    0.77054994    0.22250007    0.03826029    -0.08110000
opls_145-99    C    0.79135003    0.22252991    0.84350935    -0.09950000
opls_700-100    C    0.86345990    0.22224001    0.09381975    0.01530000
opls_145-101    C    0.88498006    0.22255997    0.90303008    -0.08850000
opls_145-102    C    0.92996996    0.27716995    0.50754933    -0.09960000
opls_145-103    C    0.95605992    0.27709002    0.35965006    -0.08120000
opls_145-104    C    0.97291010    0.70606003    0.10965930    -0.08120000
opls_145-105    C    0.97282994    0.67997008    0.25756965    -0.09960000
opls_145-106    C    0.02743992    0.63496993    0.65303008    -0.08850000
opls_700-107    C    0.02776010    0.61346001    0.84381975    0.01530000
opls_145-108    C    0.97253002    0.54134992    0.59350935    -0.09960000
opls_145-109    C    0.97249996    0.52055005    0.78826029    -0.08110000
opls_515-110    C    0.14747007    0.80764000    0.80383933    0.06540000
opls_135-111    C    0.16030998    0.82811991    0.00254970    -0.35730000
opls_135-112    C    0.12204007    0.82413993    0.67068953    -0.35710000
opls_515-113    C    0.94236011    0.60253004    0.94616067    0.06540000
opls_135-114    C    0.92585995    0.62796005    0.07931971    -0.35730000
opls_135-115    C    0.92187997    0.58968990    0.74745030    -0.35730000
opls_700-116    C    0.80202996    0.25000011    0.74609046    0.01470000
opls_700-117    C    0.76030998    0.25000011    0.14155088    0.07000000
opls_261-118    C    0.82856011    0.25000011    0.58127079    0.26210000
opls_700-119    C    0.89527991    0.25000011    0.80063003    0.08010000
opls_145-120    C    0.85183992    0.25000011    0.18530966    0.13470000
opls_700-121    C    0.97083004    0.25000011    0.29095041    0.05120000
opls_700-122    C    0.91781004    0.25000011    0.59670941    0.07770000
opls_700-123    C    0.00000000    0.66780993    0.34672049    0.07770000
opls_700-124    C    0.00000000    0.72082993    0.04097073    0.05120000
opls_145-125    C    0.00000000    0.60184003    0.93530966    0.13470000
opls_700-126    C    0.00000000    0.64528002    0.55063003    0.08080000
opls_700-127    C    0.00000000    0.51031010    0.89155088    0.07000000
opls_700-128    C    0.00000000    0.55203007    0.49609046    0.01460000
opls_261-129    C    0.00000000    0.42145003    0.66872921    0.26240000
opls_145-130    C    0.22945006    0.22250007    0.03826029    -0.08110000
opls_145-131    C    0.20864997    0.22252991    0.84350935    -0.09960000
opls_700-132    C    0.13654010    0.22224001    0.09381975    0.01530000
opls_145-133    C    0.11501994    0.22255997    0.90303008    -0.08850000
opls_145-134    C    0.07003004    0.27716995    0.50754933    -0.09960000
opls_145-135    C    0.04394008    0.27709002    0.35965006    -0.08120000
opls_145-136    C    0.02708990    0.70606003    0.10965930    -0.08120000
opls_145-137    C    0.02717006    0.67997008    0.25756965    -0.09960000
opls_145-138    C    0.97256008    0.63496993    0.65303008    -0.08840000
opls_700-139    C    0.97223990    0.61346001    0.84381975    0.01530000
opls_145-140    C    0.02746998    0.54134992    0.59350935    -0.09960000
opls_145-141    C    0.02750004    0.52055005    0.78826029    -0.08110000
opls_515-142    C    0.85252993    0.80764000    0.80383933    0.06540000
opls_135-143    C    0.83969002    0.82811991    0.00254970    -0.35730000
opls_135-144    C    0.87795993    0.82413993    0.67068953    -0.35730000
opls_515-145    C    0.05763989    0.60253004    0.94616067    0.06550000
opls_135-146    C    0.07414005    0.62796005    0.07931971    -0.35720000
opls_135-147    C    0.07812003    0.58968990    0.74745030    -0.35730000
opls_145-148    C    0.77054994    0.27749993    0.03826029    -0.08110000
opls_145-149    C    0.79135003    0.27747009    0.84350935    -0.09960000
opls_700-150    C    0.86345990    0.27775999    0.09381975    0.01530000
opls_145-151    C    0.88498006    0.27744003    0.90303008    -0.08850000
opls_145-152    C    0.92996996    0.22283005    0.50754933    -0.09960000
opls_145-153    C    0.95605992    0.22290998    0.35965006    -0.08120000
opls_145-154    C    0.97291010    0.79393997    0.10965930    -0.08120000
opls_145-155    C    0.97282994    0.82002992    0.25756965    -0.09960000
opls_145-156    C    0.02743992    0.86503007    0.65303008    -0.08850000
opls_700-157    C    0.02776010    0.88653999    0.84381975    0.01530000
opls_145-158    C    0.97253002    0.95865008    0.59350935    -0.09960000
opls_145-159    C    0.97249996    0.97944995    0.78826029    -0.08110000
opls_515-160    C    0.14747007    0.69236000    0.80383933    0.06540000
opls_135-161    C    0.16030998    0.67188009    0.00254970    -0.35730000
opls_135-162    C    0.12204007    0.67586007    0.67068953    -0.35730000
opls_515-163    C    0.94236011    0.89746996    0.94616067    0.06540000
opls_135-164    C    0.92585995    0.87203995    0.07931971    -0.35730000
opls_135-165    C    0.92187997    0.91031010    0.74745030    -0.35720000
opls_145-166    C    0.77054994    0.72250007    0.96173971    -0.08110000
opls_145-167    C    0.79135003    0.72252991    0.15649065    -0.09960000
opls_700-168    C    0.86345990    0.72224001    0.90618025    0.01530000
opls_145-169    C    0.88498006    0.72255997    0.09696992    -0.08850000
opls_145-170    C    0.92996996    0.77716995    0.49245067    -0.09960000
opls_145-171    C    0.95605992    0.77709002    0.64034994    -0.08110000
opls_145-172    C    0.97291010    0.20606003    0.89034070    -0.08120000
opls_145-173    C    0.97282994    0.17997008    0.74243035    -0.09960000
opls_145-174    C    0.02743992    0.13496993    0.34696992    -0.08850000
opls_700-175    C    0.02776010    0.11346001    0.15618025    0.01530000
opls_145-176    C    0.97253002    0.04134992    0.40649065    -0.09960000
opls_145-177    C    0.97249996    0.02055005    0.21173971    -0.08110000
opls_515-178    C    0.14747007    0.30764000    0.19616067    0.06540000
opls_135-179    C    0.16030998    0.32811991    0.99745030    -0.35720000
opls_135-180    C    0.12204007    0.32413993    0.32931047    -0.35720000
opls_515-181    C    0.94236011    0.10253004    0.05383933    0.06540000
opls_135-182    C    0.92585995    0.12796005    0.92068029    -0.35730000
opls_135-183    C    0.92187997    0.08968990    0.25254970    -0.35730000
opls_145-184    C    0.22945006    0.77749993    0.96173971    -0.08110000
opls_145-185    C    0.20864997    0.77747009    0.15649065    -0.09960000
opls_700-186    C    0.13654010    0.77775999    0.90618025    0.01530000
opls_145-187    C    0.11501994    0.77744003    0.09696992    -0.08850000
opls_145-188    C    0.07003004    0.72283005    0.49245067    -0.09950000
opls_145-189    C    0.04394008    0.72290998    0.64034994    -0.08120000
opls_145-190    C    0.02708990    0.29393997    0.89034070    -0.08120000
opls_145-191    C    0.02717006    0.32002992    0.74243035    -0.09960000
opls_145-192    C    0.97256008    0.36503007    0.34696992    -0.08850000
opls_700-193    C    0.97223990    0.38653999    0.15618025    0.01530000
opls_145-194    C    0.02746998    0.45865008    0.40649065    -0.09960000
opls_145-195    C    0.02750004    0.47944995    0.21173971    -0.08110000
opls_515-196    C    0.85252993    0.19236000    0.19616067    0.06540000
opls_135-197    C    0.83969002    0.17188009    0.99745030    -0.35730000
opls_135-198    C    0.87795993    0.17586007    0.32931047    -0.35720000
opls_515-199    C    0.05763989    0.39746996    0.05383933    0.06540000
opls_135-200    C    0.07414005    0.37203995    0.92068029    -0.35730000
opls_135-201    C    0.07812003    0.41031010    0.25254970    -0.35730000
opls_145-202    C    0.27054994    0.27749993    0.46173971    -0.08110000
opls_145-203    C    0.29135003    0.27747009    0.65649065    -0.09960000
opls_700-204    C    0.36345990    0.27775999    0.40618025    0.01530000
opls_145-205    C    0.38498006    0.27744003    0.59696992    -0.08850000
opls_145-206    C    0.42996996    0.22283005    0.99245067    -0.09960000
opls_145-207    C    0.45605992    0.22290998    0.14034994    -0.08120000
opls_145-208    C    0.47291010    0.79393997    0.39034070    -0.08120000
opls_145-209    C    0.47282994    0.82002992    0.24243035    -0.09950000
opls_145-210    C    0.52743992    0.86503007    0.84696992    -0.08850000
opls_700-211    C    0.52776010    0.88653999    0.65618025    0.01530000
opls_145-212    C    0.47253002    0.95865008    0.90649065    -0.09950000
opls_145-213    C    0.47249996    0.97944995    0.71173971    -0.08110000
opls_515-214    C    0.64747007    0.69236000    0.69616067    0.06540000
opls_135-215    C    0.66030998    0.67188009    0.49745030    -0.35730000
opls_135-216    C    0.62204007    0.67586007    0.82931047    -0.35730000
opls_515-217    C    0.44236011    0.89746996    0.55383933    0.06540000
opls_135-218    C    0.42585995    0.87203995    0.42068029    -0.35730000
opls_135-219    C    0.42187997    0.91031010    0.75254970    -0.35730000
opls_700-220    C    0.30202996    0.25000011    0.75390954    0.01470000
opls_700-221    C    0.26030998    0.25000011    0.35844912    0.07000000
opls_261-222    C    0.32856011    0.25000011    0.91872921    0.26210000
opls_700-223    C    0.39527991    0.25000011    0.69936997    0.08010000
opls_145-224    C    0.35183992    0.25000011    0.31469034    0.13470000
opls_700-225    C    0.47083004    0.25000011    0.20904959    0.05120000
opls_700-226    C    0.41781004    0.25000011    0.90329059    0.07770000
opls_701-227    C    0.50000000    0.25000011    0.37500924    0.03600000
opls_700-228    C    0.50000000    0.83219007    0.15327951    0.07770000
opls_700-229    C    0.50000000    0.77917007    0.45902927    0.05120000
opls_145-230    C    0.50000000    0.89815997    0.56469034    0.13470000
opls_700-231    C    0.50000000    0.85471998    0.94936997    0.08080000
opls_700-232    C    0.50000000    0.98968990    0.60844912    0.07000000
opls_700-233    C    0.50000000    0.94796993    0.00390954    0.01460000
opls_261-234    C    0.50000000    0.07854997    0.83127079    0.26240000
opls_145-235    C    0.72945006    0.22250007    0.46173971    -0.08110000
opls_145-236    C    0.70864997    0.22252991    0.65649065    -0.09960000
opls_700-237    C    0.63654010    0.22224001    0.40618025    0.01530000
opls_145-238    C    0.61501994    0.22255997    0.59696992    -0.08850000
opls_145-239    C    0.57003004    0.27716995    0.99245067    -0.09950000
opls_145-240    C    0.54394008    0.27709002    0.14034994    -0.08120000
opls_145-241    C    0.52708990    0.70606003    0.39034070    -0.08120000
opls_145-242    C    0.52717006    0.67997008    0.24243035    -0.09960000
opls_145-243    C    0.47256008    0.63496993    0.84696992    -0.08840000
opls_700-244    C    0.47223990    0.61346001    0.65618025    0.01530000
opls_145-245    C    0.52746998    0.54134992    0.90649065    -0.09960000
opls_145-246    C    0.52750004    0.52055005    0.71173971    -0.08110000
opls_515-247    C    0.35252993    0.80764000    0.69616067    0.06540000
opls_135-248    C    0.33969002    0.82811991    0.49745030    -0.35720000
opls_135-249    C    0.37795993    0.82413993    0.82931047    -0.35730000
opls_515-250    C    0.55763989    0.60253004    0.55383933    0.06540000
opls_135-251    C    0.57414005    0.62796005    0.42068029    -0.35730000
opls_135-252    C    0.57812003    0.58968990    0.75254970    -0.35720000
opls_700-253    C    0.69797004    0.25000011    0.75390954    0.01470000
opls_700-254    C    0.73969002    0.25000011    0.35844912    0.07000000
opls_261-255    C    0.67143989    0.25000011    0.91872921    0.26210000
opls_700-256    C    0.60472009    0.25000011    0.69936997    0.08010000
opls_145-257    C    0.64816008    0.25000011    0.31469034    0.13470000
opls_700-258    C    0.52916996    0.25000011    0.20904959    0.05120000
opls_700-259    C    0.58218996    0.25000011    0.90329059    0.07770000
opls_700-260    C    0.50000000    0.66780993    0.15327951    0.07770000
opls_700-261    C    0.50000000    0.72082993    0.45902927    0.05120000
opls_145-262    C    0.50000000    0.60184003    0.56469034    0.13470000
opls_700-263    C    0.50000000    0.64528002    0.94936997    0.08080000
opls_700-264    C    0.50000000    0.51031010    0.60844912    0.07000000
opls_700-265    C    0.50000000    0.55203007    0.00390954    0.01460000
opls_261-266    C    0.50000000    0.42145003    0.83127079    0.26240000
opls_145-267    C    0.72945006    0.77749993    0.53826029    -0.08110000
opls_145-268    C    0.70864997    0.77747009    0.34350935    -0.09960000
opls_700-269    C    0.63654010    0.77775999    0.59381975    0.01530000
opls_145-270    C    0.61501994    0.77744003    0.40303008    -0.08850000
opls_145-271    C    0.57003004    0.72283005    0.00754933    -0.09960000
opls_145-272    C    0.54394008    0.72290998    0.85965006    -0.08120000
opls_145-273    C    0.52708990    0.29393997    0.60965930    -0.08120000
opls_145-274    C    0.52717006    0.32002992    0.75756965    -0.09960000
opls_145-275    C    0.47256008    0.36503007    0.15303008    -0.08850000
opls_700-276    C    0.47223990    0.38653999    0.34381975    0.01530000
opls_145-277    C    0.52746998    0.45865008    0.09350935    -0.09960000
opls_145-278    C    0.52750004    0.47944995    0.28826029    -0.08110000
opls_515-279    C    0.35252993    0.19236000    0.30383933    0.06550000
opls_135-280    C    0.33969002    0.17188009    0.50254970    -0.35720000
opls_135-281    C    0.37795993    0.17586007    0.17068953    -0.35730000
opls_515-282    C    0.55763989    0.39746996    0.44616067    0.06550000
opls_135-283    C    0.57414005    0.37203995    0.57931971    -0.35730000
opls_135-284    C    0.57812003    0.41031010    0.24745030    -0.35730000
opls_700-285    C    0.69797004    0.74999989    0.24609046    0.01470000
opls_700-286    C    0.73969002    0.74999989    0.64155088    0.07000000
opls_261-287    C    0.67143989    0.74999989    0.08127079    0.26210000
opls_700-288    C    0.60472009    0.74999989    0.30063003    0.08030000
opls_145-289    C    0.64816008    0.74999989    0.68530966    0.13480000
opls_700-290    C    0.52916996    0.74999989    0.79095041    0.05120000
opls_700-291    C    0.58218996    0.74999989    0.09670941    0.07770000
opls_701-292    C    0.50000000    0.74999989    0.62499076    0.03600000
opls_700-293    C    0.50000000    0.33219007    0.84672049    0.07770000
opls_700-294    C    0.50000000    0.27917007    0.54097073    0.05120000
opls_145-295    C    0.50000000    0.39815997    0.43530966    0.13470000
opls_700-296    C    0.50000000    0.35471998    0.05063003    0.08080000
opls_700-297    C    0.50000000    0.48968990    0.39155088    0.07000000
opls_700-298    C    0.50000000    0.44796993    0.99609046    0.01460000
opls_261-299    C    0.50000000    0.57854997    0.16872921    0.26240000
opls_145-300    C    0.27054994    0.72250007    0.53826029    -0.08110000
opls_145-301    C    0.29135003    0.72252991    0.34350935    -0.09960000
opls_700-302    C    0.36345990    0.72224001    0.59381975    0.01530000
opls_145-303    C    0.38498006    0.72255997    0.40303008    -0.08850000
opls_145-304    C    0.42996996    0.77716995    0.00754933    -0.09960000
opls_145-305    C    0.45605992    0.77709002    0.85965006    -0.08120000
opls_145-306    C    0.47291010    0.20606003    0.60965930    -0.08110000
opls_145-307    C    0.47282994    0.17997008    0.75756965    -0.09960000
opls_145-308    C    0.52743992    0.13496993    0.15303008    -0.08850000
opls_700-309    C    0.52776010    0.11346001    0.34381975    0.01530000
opls_145-310    C    0.47253002    0.04134992    0.09350935    -0.09960000
opls_145-311    C    0.47249996    0.02055005    0.28826029    -0.08110000
opls_515-312    C    0.64747007    0.30764000    0.30383933    0.06550000
opls_135-313    C    0.66030998    0.32811991    0.50254970    -0.35730000
opls_135-314    C    0.62204007    0.32413993    0.17068953    -0.35710000
opls_515-315    C    0.44236011    0.10253004    0.44616067    0.06540000
opls_135-316    C    0.42585995    0.12796005    0.57931971    -0.35730000
opls_135-317    C    0.42187997    0.08968990    0.24745030    -0.35730000
opls_700-318    C    0.30202996    0.74999989    0.24609046    0.01470000
opls_700-319    C    0.26030998    0.74999989    0.64155088    0.07000000
opls_261-320    C    0.32856011    0.74999989    0.08127079    0.26210000
opls_700-321    C    0.39527991    0.74999989    0.30063003    0.08010000
opls_145-322    C    0.35183992    0.74999989    0.68530966    0.13470000
opls_700-323    C    0.47083004    0.74999989    0.79095041    0.05120000
opls_700-324    C    0.41781004    0.74999989    0.09670941    0.07770000
opls_700-325    C    0.50000000    0.16780993    0.84672049    0.07770000
opls_700-326    C    0.50000000    0.22082993    0.54097073    0.05120000
opls_145-327    C    0.50000000    0.10184003    0.43530966    0.13470000
opls_700-328    C    0.50000000    0.14528002    0.05063003    0.08080000
opls_700-329    C    0.50000000    0.01031010    0.39155088    0.07000000
opls_700-330    C    0.50000000    0.05203007    0.99609046    0.01460000
opls_261-331    C    0.50000000    0.92145003    0.16872921    0.26240000
opls_145-332    C    0.72945006    0.72250007    0.53826029    -0.08110000
opls_145-333    C    0.70864997    0.72252991    0.34350935    -0.09960000
opls_700-334    C    0.63654010    0.72224001    0.59381975    0.01530000
opls_145-335    C    0.61501994    0.72255997    0.40303008    -0.08850000
opls_145-336    C    0.57003004    0.77716995    0.00754933    -0.09960000
opls_145-337    C    0.54394008    0.77709002    0.85965006    -0.08120000
opls_145-338    C    0.52708990    0.20606003    0.60965930    -0.08120000
opls_145-339    C    0.52717006    0.17997008    0.75756965    -0.09960000
opls_145-340    C    0.47256008    0.13496993    0.15303008    -0.08850000
opls_700-341    C    0.47223990    0.11346001    0.34381975    0.01530000
opls_145-342    C    0.52746998    0.04134992    0.09350935    -0.09960000
opls_145-343    C    0.52750004    0.02055005    0.28826029    -0.08110000
opls_515-344    C    0.35252993    0.30764000    0.30383933    0.06540000
opls_135-345    C    0.33969002    0.32811991    0.50254970    -0.35730000
opls_135-346    C    0.37795993    0.32413993    0.17068953    -0.35730000
opls_515-347    C    0.55763989    0.10253004    0.44616067    0.06540000
opls_135-348    C    0.57414005    0.12796005    0.57931971    -0.35720000
opls_135-349    C    0.57812003    0.08968990    0.24745030    -0.35720000
opls_145-350    C    0.27054994    0.77749993    0.53826029    -0.08110000
opls_145-351    C    0.29135003    0.77747009    0.34350935    -0.09950000
opls_700-352    C    0.36345990    0.77775999    0.59381975    0.01530000
opls_145-353    C    0.38498006    0.77744003    0.40303008    -0.08850000
opls_145-354    C    0.42996996    0.72283005    0.00754933    -0.09960000
opls_145-355    C    0.45605992    0.72290998    0.85965006    -0.08120000
opls_145-356    C    0.47291010    0.29393997    0.60965930    -0.08120000
opls_145-357    C    0.47282994    0.32002992    0.75756965    -0.09960000
opls_145-358    C    0.52743992    0.36503007    0.15303008    -0.08850000
opls_700-359    C    0.52776010    0.38653999    0.34381975    0.01530000
opls_145-360    C    0.47253002    0.45865008    0.09350935    -0.09960000
opls_145-361    C    0.47249996    0.47944995    0.28826029    -0.08110000
opls_515-362    C    0.64747007    0.19236000    0.30383933    0.06540000
opls_135-363    C    0.66030998    0.17188009    0.50254970    -0.35730000
opls_135-364    C    0.62204007    0.17586007    0.17068953    -0.35720000
opls_515-365    C    0.44236011    0.39746996    0.44616067    0.06540000
opls_135-366    C    0.42585995    0.37203995    0.57931971    -0.35720000
opls_135-367    C    0.42187997    0.41031010    0.24745030    -0.35730000
opls_145-368    C    0.27054994    0.22250007    0.46173971    -0.08110000
opls_145-369    C    0.29135003    0.22252991    0.65649065    -0.09960000
opls_700-370    C    0.36345990    0.22224001    0.40618025    0.01530000
opls_145-371    C    0.38498006    0.22255997    0.59696992    -0.08850000
opls_145-372    C    0.42996996    0.27716995    0.99245067    -0.09960000
opls_145-373    C    0.45605992    0.27709002    0.14034994    -0.08120000
opls_145-374    C    0.47291010    0.70606003    0.39034070    -0.08120000
opls_145-375    C    0.47282994    0.67997008    0.24243035    -0.09960000
opls_145-376    C    0.52743992    0.63496993    0.84696992    -0.08850000
opls_700-377    C    0.52776010    0.61346001    0.65618025    0.01530000
opls_145-378    C    0.47253002    0.54134992    0.90649065    -0.09950000
opls_145-379    C    0.47249996    0.52055005    0.71173971    -0.08100000
opls_515-380    C    0.64747007    0.80764000    0.69616067    0.06550000
opls_135-381    C    0.66030998    0.82811991    0.49745030    -0.35720000
opls_135-382    C    0.62204007    0.82413993    0.82931047    -0.35730000
opls_515-383    C    0.44236011    0.60253004    0.55383933    0.06540000
opls_135-384    C    0.42585995    0.62796005    0.42068029    -0.35730000
opls_135-385    C    0.42187997    0.58968990    0.75254970    -0.35730000
opls_145-386    C    0.72945006    0.27749993    0.46173971    -0.08110000
opls_145-387    C    0.70864997    0.27747009    0.65649065    -0.09960000
opls_700-388    C    0.63654010    0.27775999    0.40618025    0.01530000
opls_145-389    C    0.61501994    0.27744003    0.59696992    -0.08850000
opls_145-390    C    0.57003004    0.22283005    0.99245067    -0.09960000
opls_145-391    C    0.54394008    0.22290998    0.14034994    -0.08120000
opls_145-392    C    0.52708990    0.79393997    0.39034070    -0.08120000
opls_145-393    C    0.52717006    0.82002992    0.24243035    -0.09960000
opls_145-394    C    0.47256008    0.86503007    0.84696992    -0.08850000
opls_700-395    C    0.47223990    0.88653999    0.65618025    0.01530000
opls_145-396    C    0.52746998    0.95865008    0.90649065    -0.09960000
opls_145-397    C    0.52750004    0.97944995    0.71173971    -0.08110000
opls_515-398    C    0.35252993    0.69236000    0.69616067    0.06540000
opls_135-399    C    0.33969002    0.67188009    0.49745030    -0.35720000
opls_135-400    C    0.37795993    0.67586007    0.82931047    -0.35720000
opls_515-401    C    0.55763989    0.89746996    0.55383933    0.06540000
opls_135-402    C    0.57414005    0.87203995    0.42068029    -0.35720000
opls_135-403    C    0.57812003    0.91031010    0.75254970    -0.35720000
opls_146-404    H    0.76174010    0.80001002    0.88530042    0.04680000
opls_146-405    H    0.79968004    0.79994990    0.23671939    0.04700000
opls_146-406    H    0.89440999    0.79979004    0.17151910    0.04680000
opls_146-407    H    0.91841990    0.70036004    0.44374030    0.04620000
opls_146-408    H    0.96598994    0.70049007    0.70906991    0.04680000
opls_146-409    H    0.95048995    0.28400995    0.95906068    0.04680000
opls_146-410    H    0.95035992    0.33157999    0.69372921    0.04620000
opls_146-411    H    0.04978992    0.35558989    0.42151910    0.04680000
opls_146-412    H    0.95004999    0.45032007    0.48671939    0.04690000
opls_146-413    H    0.94999009    0.48826001    0.13530042    0.04680000
opls_702-414    H    0.16641009    0.19729005    0.33327914    0.04820000
opls_140-415    H    0.18625009    0.17193998    0.00795026    0.09460000
opls_140-416    H    0.15278999    0.18066009    0.81064038    0.10240000
opls_140-417    H    0.15151996    0.14768003    0.02456027    0.09530000
opls_140-418    H    0.13224996    0.15868993    0.46265982    0.09540000
opls_140-419    H    0.10712010    0.16342004    0.19090976    0.09590000
opls_140-420    H    0.10765002    0.19306003    0.43443944    0.09540000
opls_702-421    H    0.94728994    0.41640998    0.91673010    0.04820000
opls_140-422    H    0.94091997    0.35089007    0.91595041    0.09460000
opls_140-423    H    0.92054003    0.37956996    0.72565036    0.10470000
opls_140-424    H    0.90370989    0.36655994    0.02032924    0.09540000
opls_140-425    H    0.90486993    0.42684009    0.16774998    0.09540000
opls_140-426    H    0.93633993    0.42281001    0.39374954    0.09590000
opls_140-427    H    0.90906010    0.39090004    0.34536989    0.09540000
opls_146-428    H    0.23825990    0.69998998    0.88530042    0.04680000
opls_146-429    H    0.20031996    0.70005010    0.23671939    0.04690000
opls_146-430    H    0.10559001    0.70020996    0.17151910    0.04680000
opls_146-431    H    0.08158010    0.79963996    0.44374030    0.04630000
opls_146-432    H    0.03401006    0.79950993    0.70906991    0.04680000
opls_146-433    H    0.04951005    0.21599005    0.95906068    0.04680000
opls_146-434    H    0.04964008    0.16842001    0.69372921    0.04620000
opls_146-435    H    0.95021008    0.14441011    0.42151910    0.04680000
opls_146-436    H    0.04995001    0.04967993    0.48671939    0.04690000
opls_146-437    H    0.05000991    0.01173999    0.13530042    0.04680000
opls_702-438    H    0.83358991    0.30270995    0.33327914    0.04820000
opls_140-439    H    0.81374991    0.32806002    0.00795026    0.09460000
opls_140-440    H    0.84721001    0.31933991    0.81064038    0.10250000
opls_140-441    H    0.84848004    0.35231997    0.02456027    0.09530000
opls_140-442    H    0.86775004    0.34131007    0.46265982    0.09540000
opls_140-443    H    0.89287990    0.33657996    0.19090976    0.09590000
opls_140-444    H    0.89234998    0.30693997    0.43443944    0.09540000
opls_702-445    H    0.05271006    0.08359002    0.91673010    0.04820000
opls_140-446    H    0.05908003    0.14910993    0.91595041    0.09460000
opls_140-447    H    0.07945997    0.12043004    0.72565036    0.10480000
opls_140-448    H    0.09629011    0.13344006    0.02032924    0.09540000
opls_140-449    H    0.09513007    0.07315991    0.16774998    0.09550000
opls_140-450    H    0.06366007    0.07718999    0.39374954    0.09590000
opls_140-451    H    0.09093990    0.10909996    0.34536989    0.09540000
opls_146-452    H    0.23825990    0.30001002    0.11469958    0.04680000
opls_146-453    H    0.20031996    0.29994990    0.76328061    0.04690000
opls_146-454    H    0.10559001    0.29979004    0.82848090    0.04680000
opls_146-455    H    0.08158010    0.20036004    0.55625970    0.04620000
opls_146-456    H    0.03401006    0.20049007    0.29093009    0.04680000
opls_146-457    H    0.04951005    0.78400995    0.04093932    0.04680000
opls_146-458    H    0.04964008    0.83157999    0.30627079    0.04620000
opls_146-459    H    0.95021008    0.85558989    0.57848090    0.04680000
opls_146-460    H    0.04995001    0.95032007    0.51328061    0.04690000
opls_146-461    H    0.05000991    0.98826001    0.86469958    0.04680000
opls_702-462    H    0.83358991    0.69729005    0.66672086    0.04820000
opls_140-463    H    0.81374991    0.67193998    0.99204974    0.09460000
opls_140-464    H    0.84721001    0.68066009    0.18935962    0.10250000
opls_140-465    H    0.84848004    0.64768003    0.97543973    0.09530000
opls_140-466    H    0.86775004    0.65868993    0.53734018    0.09540000
opls_140-467    H    0.89287990    0.66342004    0.80909024    0.09600000
opls_140-468    H    0.89234998    0.69306003    0.56556056    0.09540000
opls_702-469    H    0.05271006    0.91640998    0.08326990    0.04820000
opls_140-470    H    0.05908003    0.85089007    0.08404959    0.09460000
opls_140-471    H    0.07945997    0.87956996    0.27434964    0.10470000
opls_140-472    H    0.09629011    0.86655994    0.97967076    0.09540000
opls_140-473    H    0.09513007    0.92684009    0.83225002    0.09540000
opls_140-474    H    0.06366007    0.92281001    0.60625046    0.09590000
opls_140-475    H    0.09093990    0.89090004    0.65463011    0.09540000
opls_146-476    H    0.76174010    0.19998998    0.11469958    0.04680000
opls_146-477    H    0.79968004    0.20005010    0.76328061    0.04690000
opls_146-478    H    0.89440999    0.20020996    0.82848090    0.04680000
opls_146-479    H    0.91841990    0.29963996    0.55625970    0.04620000
opls_146-480    H    0.96598994    0.29950993    0.29093009    0.04690000
opls_146-481    H    0.95048995    0.71599005    0.04093932    0.04680000
opls_146-482    H    0.95035992    0.66842001    0.30627079    0.04620000
opls_146-483    H    0.04978992    0.64441011    0.57848090    0.04680000
opls_146-484    H    0.95004999    0.54967993    0.51328061    0.04690000
opls_146-485    H    0.94999009    0.51173999    0.86469958    0.04680000
opls_702-486    H    0.16641009    0.80270995    0.66672086    0.04820000
opls_140-487    H    0.18625009    0.82806002    0.99204974    0.09460000
opls_140-488    H    0.15278999    0.81933991    0.18935962    0.10240000
opls_140-489    H    0.15151996    0.85231997    0.97543973    0.09530000
opls_140-490    H    0.13224996    0.84131007    0.53734018    0.09540000
opls_140-491    H    0.10712010    0.83657996    0.80909024    0.09590000
opls_140-492    H    0.10765002    0.80693997    0.56556056    0.09550000
opls_702-493    H    0.94728994    0.58359002    0.08326990    0.04820000
opls_140-494    H    0.94091997    0.64910993    0.08404959    0.09460000
opls_140-495    H    0.92054003    0.62043004    0.27434964    0.10470000
opls_140-496    H    0.90370989    0.63344006    0.97967076    0.09540000
opls_140-497    H    0.90486993    0.57315991    0.83225002    0.09550000
opls_140-498    H    0.93633993    0.57718999    0.60625046    0.09590000
opls_140-499    H    0.90906010    0.60909996    0.65463011    0.09540000
opls_146-500    H    0.23825990    0.19998998    0.11469958    0.04680000
opls_146-501    H    0.20031996    0.20005010    0.76328061    0.04690000
opls_146-502    H    0.10559001    0.20020996    0.82848090    0.04680000
opls_146-503    H    0.08158010    0.29963996    0.55625970    0.04620000
opls_146-504    H    0.03401006    0.29950993    0.29093009    0.04680000
opls_146-505    H    0.04951005    0.71599005    0.04093932    0.04680000
opls_146-506    H    0.04964008    0.66842001    0.30627079    0.04620000
opls_146-507    H    0.95021008    0.64441011    0.57848090    0.04680000
opls_146-508    H    0.04995001    0.54967993    0.51328061    0.04690000
opls_146-509    H    0.05000991    0.51173999    0.86469958    0.04680000
opls_702-510    H    0.83358991    0.80270995    0.66672086    0.04820000
opls_140-511    H    0.81374991    0.82806002    0.99204974    0.09460000
opls_140-512    H    0.84721001    0.81933991    0.18935962    0.10240000
opls_140-513    H    0.84848004    0.85231997    0.97543973    0.09530000
opls_140-514    H    0.86775004    0.84131007    0.53734018    0.09540000
opls_140-515    H    0.89287990    0.83657996    0.80909024    0.09590000
opls_140-516    H    0.89234998    0.80693997    0.56556056    0.09540000
opls_702-517    H    0.05271006    0.58359002    0.08326990    0.04820000
opls_140-518    H    0.05908003    0.64910993    0.08404959    0.09470000
opls_140-519    H    0.07945997    0.62043004    0.27434964    0.10470000
opls_140-520    H    0.09629011    0.63344006    0.97967076    0.09540000
opls_140-521    H    0.09513007    0.57315991    0.83225002    0.09540000
opls_140-522    H    0.06366007    0.57718999    0.60625046    0.09590000
opls_140-523    H    0.09093990    0.60909996    0.65463011    0.09540000
opls_146-524    H    0.76174010    0.30001002    0.11469958    0.04680000
opls_146-525    H    0.79968004    0.29994990    0.76328061    0.04690000
opls_146-526    H    0.89440999    0.29979004    0.82848090    0.04680000
opls_146-527    H    0.91841990    0.20036004    0.55625970    0.04620000
opls_146-528    H    0.96598994    0.20049007    0.29093009    0.04680000
opls_146-529    H    0.95048995    0.78400995    0.04093932    0.04680000
opls_146-530    H    0.95035992    0.83157999    0.30627079    0.04620000
opls_146-531    H    0.04978992    0.85558989    0.57848090    0.04680000
opls_146-532    H    0.95004999    0.95032007    0.51328061    0.04690000
opls_146-533    H    0.94999009    0.98826001    0.86469958    0.04680000
opls_702-534    H    0.16641009    0.69729005    0.66672086    0.04820000
opls_140-535    H    0.18625009    0.67193998    0.99204974    0.09460000
opls_140-536    H    0.15278999    0.68066009    0.18935962    0.10240000
opls_140-537    H    0.15151996    0.64768003    0.97543973    0.09530000
opls_140-538    H    0.13224996    0.65868993    0.53734018    0.09540000
opls_140-539    H    0.10712010    0.66342004    0.80909024    0.09590000
opls_140-540    H    0.10765002    0.69306003    0.56556056    0.09540000
opls_702-541    H    0.94728994    0.91640998    0.08326990    0.04820000
opls_140-542    H    0.94091997    0.85089007    0.08404959    0.09460000
opls_140-543    H    0.92054003    0.87956996    0.27434964    0.10470000
opls_140-544    H    0.90370989    0.86655994    0.97967076    0.09540000
opls_140-545    H    0.90486993    0.92684009    0.83225002    0.09550000
opls_140-546    H    0.93633993    0.92281001    0.60625046    0.09590000
opls_140-547    H    0.90906010    0.89090004    0.65463011    0.09540000
opls_146-548    H    0.76174010    0.69998998    0.88530042    0.04680000
opls_146-549    H    0.79968004    0.70005010    0.23671939    0.04690000
opls_146-550    H    0.89440999    0.70020996    0.17151910    0.04680000
opls_146-551    H    0.91841990    0.79963996    0.44374030    0.04620000
opls_146-552    H    0.96598994    0.79950993    0.70906991    0.04680000
opls_146-553    H    0.95048995    0.21599005    0.95906068    0.04680000
opls_146-554    H    0.95035992    0.16842001    0.69372921    0.04620000
opls_146-555    H    0.04978992    0.14441011    0.42151910    0.04680000
opls_146-556    H    0.95004999    0.04967993    0.48671939    0.04690000
opls_146-557    H    0.94999009    0.01173999    0.13530042    0.04680000
opls_702-558    H    0.16641009    0.30270995    0.33327914    0.04820000
opls_140-559    H    0.18625009    0.32806002    0.00795026    0.09460000
opls_140-560    H    0.15278999    0.31933991    0.81064038    0.10240000
opls_140-561    H    0.15151996    0.35231997    0.02456027    0.09530000
opls_140-562    H    0.13224996    0.34131007    0.46265982    0.09540000
opls_140-563    H    0.10712010    0.33657996    0.19090976    0.09590000
opls_140-564    H    0.10765002    0.30693997    0.43443944    0.09540000
opls_702-565    H    0.94728994    0.08359002    0.91673010    0.04820000
opls_140-566    H    0.94091997    0.14910993    0.91595041    0.09460000
opls_140-567    H    0.92054003    0.12043004    0.72565036    0.10470000
opls_140-568    H    0.90370989    0.13344006    0.02032924    0.09540000
opls_140-569    H    0.90486993    0.07315991    0.16774998    0.09540000
opls_140-570    H    0.93633993    0.07718999    0.39374954    0.09590000
opls_140-571    H    0.90906010    0.10909996    0.34536989    0.09540000
opls_146-572    H    0.23825990    0.80001002    0.88530042    0.04680000
opls_146-573    H    0.20031996    0.79994990    0.23671939    0.04690000
opls_146-574    H    0.10559001    0.79979004    0.17151910    0.04680000
opls_146-575    H    0.08158010    0.70036004    0.44374030    0.04620000
opls_146-576    H    0.03401006    0.70049007    0.70906991    0.04680000
opls_146-577    H    0.04951005    0.28400995    0.95906068    0.04680000
opls_146-578    H    0.04964008    0.33157999    0.69372921    0.04620000
opls_146-579    H    0.95021008    0.35558989    0.42151910    0.04680000
opls_146-580    H    0.04995001    0.45032007    0.48671939    0.04690000
opls_146-581    H    0.05000991    0.48826001    0.13530042    0.04680000
opls_702-582    H    0.83358991    0.19729005    0.33327914    0.04820000
opls_140-583    H    0.81374991    0.17193998    0.00795026    0.09460000
opls_140-584    H    0.84721001    0.18066009    0.81064038    0.10240000
opls_140-585    H    0.84848004    0.14768003    0.02456027    0.09530000
opls_140-586    H    0.86775004    0.15868993    0.46265982    0.09540000
opls_140-587    H    0.89287990    0.16342004    0.19090976    0.09600000
opls_140-588    H    0.89234998    0.19306003    0.43443944    0.09540000
opls_702-589    H    0.05271006    0.41640998    0.91673010    0.04820000
opls_140-590    H    0.05908003    0.35089007    0.91595041    0.09460000
opls_140-591    H    0.07945997    0.37956996    0.72565036    0.10480000
opls_140-592    H    0.09629011    0.36655994    0.02032924    0.09540000
opls_140-593    H    0.09513007    0.42684009    0.16774998    0.09550000
opls_140-594    H    0.06366007    0.42281001    0.39374954    0.09590000
opls_140-595    H    0.09093990    0.39090004    0.34536989    0.09540000
opls_146-596    H    0.26174010    0.30001002    0.38530042    0.04680000
opls_146-597    H    0.29968004    0.29994990    0.73671939    0.04690000
opls_146-598    H    0.39440999    0.29979004    0.67151910    0.04680000
opls_146-599    H    0.41841990    0.20036004    0.94374030    0.04620000
opls_146-600    H    0.46598994    0.20049007    0.20906991    0.04680000
opls_146-601    H    0.45048995    0.78400995    0.45906068    0.04680000
opls_146-602    H    0.45035992    0.83157999    0.19372921    0.04620000
opls_146-603    H    0.54978992    0.85558989    0.92151910    0.04680000
opls_146-604    H    0.45004999    0.95032007    0.98671939    0.04690000
opls_146-605    H    0.44999009    0.98826001    0.63530042    0.04680000
opls_702-606    H    0.66641009    0.69729005    0.83327914    0.04820000
opls_140-607    H    0.68625009    0.67193998    0.50795026    0.09460000
opls_140-608    H    0.65278999    0.68066009    0.31064038    0.10250000
opls_140-609    H    0.65151996    0.64768003    0.52456027    0.09530000
opls_140-610    H    0.63224996    0.65868993    0.96265982    0.09540000
opls_140-611    H    0.60712010    0.66342004    0.69090976    0.09590000
opls_140-612    H    0.60765002    0.69306003    0.93443944    0.09540000
opls_702-613    H    0.44728994    0.91640998    0.41673010    0.04820000
opls_140-614    H    0.44091997    0.85089007    0.41595041    0.09460000
opls_140-615    H    0.42054003    0.87956996    0.22565036    0.10480000
opls_140-616    H    0.40370989    0.86655994    0.52032924    0.09540000
opls_140-617    H    0.40486993    0.92684009    0.66774998    0.09540000
opls_140-618    H    0.43633993    0.92281001    0.89374954    0.09590000
opls_140-619    H    0.40906010    0.89090004    0.84536989    0.09540000
opls_146-620    H    0.73825990    0.19998998    0.38530042    0.04680000
opls_146-621    H    0.70031996    0.20005010    0.73671939    0.04690000
opls_146-622    H    0.60559001    0.20020996    0.67151910    0.04680000
opls_146-623    H    0.58158010    0.29963996    0.94374030    0.04620000
opls_146-624    H    0.53401006    0.29950993    0.20906991    0.04680000
opls_146-625    H    0.54951005    0.71599005    0.45906068    0.04680000
opls_146-626    H    0.54964008    0.66842001    0.19372921    0.04620000
opls_146-627    H    0.45021008    0.64441011    0.92151910    0.04680000
opls_146-628    H    0.54995001    0.54967993    0.98671939    0.04690000
opls_146-629    H    0.55000991    0.51173999    0.63530042    0.04680000
opls_702-630    H    0.33358991    0.80270995    0.83327914    0.04820000
opls_140-631    H    0.31374991    0.82806002    0.50795026    0.09460000
opls_140-632    H    0.34721001    0.81933991    0.31064038    0.10240000
opls_140-633    H    0.34848004    0.85231997    0.52456027    0.09530000
opls_140-634    H    0.36775004    0.84131007    0.96265982    0.09540000
opls_140-635    H    0.39287990    0.83657996    0.69090976    0.09590000
opls_140-636    H    0.39234998    0.80693997    0.93443944    0.09540000
opls_702-637    H    0.55271006    0.58359002    0.41673010    0.04820000
opls_140-638    H    0.55908003    0.64910993    0.41595041    0.09460000
opls_140-639    H    0.57945997    0.62043004    0.22565036    0.10470000
opls_140-640    H    0.59629011    0.63344006    0.52032924    0.09550000
opls_140-641    H    0.59513007    0.57315991    0.66774998    0.09540000
opls_140-642    H    0.56366007    0.57718999    0.89374954    0.09590000
opls_140-643    H    0.59093990    0.60909996    0.84536989    0.09540000
opls_146-644    H    0.73825990    0.80001002    0.61469958    0.04680000
opls_146-645    H    0.70031996    0.79994990    0.26328061    0.04690000
opls_146-646    H    0.60559001    0.79979004    0.32848090    0.04680000
opls_146-647    H    0.58158010    0.70036004    0.05625970    0.04620000
opls_146-648    H    0.53401006    0.70049007    0.79093009    0.04680000
opls_146-649    H    0.54951005    0.28400995    0.54093932    0.04680000
opls_146-650    H    0.54964008    0.33157999    0.80627079    0.04620000
opls_146-651    H    0.45021008    0.35558989    0.07848090    0.04680000
opls_146-652    H    0.54995001    0.45032007    0.01328061    0.04690000
opls_146-653    H    0.55000991    0.48826001    0.36469958    0.04680000
opls_702-654    H    0.33358991    0.19729005    0.16672086    0.04820000
opls_140-655    H    0.31374991    0.17193998    0.49204974    0.09470000
opls_140-656    H    0.34721001    0.18066009    0.68935962    0.10240000
opls_140-657    H    0.34848004    0.14768003    0.47543973    0.09530000
opls_140-658    H    0.36775004    0.15868993    0.03734018    0.09540000
opls_140-659    H    0.39287990    0.16342004    0.30909024    0.09590000
opls_140-660    H    0.39234998    0.19306003    0.06556056    0.09550000
opls_702-661    H    0.55271006    0.41640998    0.58326990    0.04820000
opls_140-662    H    0.55908003    0.35089007    0.58404959    0.09460000
opls_140-663    H    0.57945997    0.37956996    0.77434964    0.10470000
opls_140-664    H    0.59629011    0.36655994    0.47967076    0.09540000
opls_140-665    H    0.59513007    0.42684009    0.33225002    0.09540000
opls_140-666    H    0.56366007    0.42281001    0.10625046    0.09590000
opls_140-667    H    0.59093990    0.39090004    0.15463011    0.09540000
opls_146-668    H    0.26174010    0.69998998    0.61469958    0.04680000
opls_146-669    H    0.29968004    0.70005010    0.26328061    0.04690000
opls_146-670    H    0.39440999    0.70020996    0.32848090    0.04680000
opls_146-671    H    0.41841990    0.79963996    0.05625970    0.04620000
opls_146-672    H    0.46598994    0.79950993    0.79093009    0.04680000
opls_146-673    H    0.45048995    0.21599005    0.54093932    0.04680000
opls_146-674    H    0.45035992    0.16842001    0.80627079    0.04620000
opls_146-675    H    0.54978992    0.14441011    0.07848090    0.04680000
opls_146-676    H    0.45004999    0.04967993    0.01328061    0.04690000
opls_146-677    H    0.44999009    0.01173999    0.36469958    0.04680000
opls_702-678    H    0.66641009    0.30270995    0.16672086    0.04820000
opls_140-679    H    0.68625009    0.32806002    0.49204974    0.09460000
opls_140-680    H    0.65278999    0.31933991    0.68935962    0.10240000
opls_140-681    H    0.65151996    0.35231997    0.47543973    0.09530000
opls_140-682    H    0.63224996    0.34131007    0.03734018    0.09540000
opls_140-683    H    0.60712010    0.33657996    0.30909024    0.09590000
opls_140-684    H    0.60765002    0.30693997    0.06556056    0.09540000
opls_702-685    H    0.44728994    0.08359002    0.58326990    0.04820000
opls_140-686    H    0.44091997    0.14910993    0.58404959    0.09460000
opls_140-687    H    0.42054003    0.12043004    0.77434964    0.10470000
opls_140-688    H    0.40370989    0.13344006    0.47967076    0.09540000
opls_140-689    H    0.40486993    0.07315991    0.33225002    0.09540000
opls_140-690    H    0.43633993    0.07718999    0.10625046    0.09590000
opls_140-691    H    0.40906010    0.10909996    0.15463011    0.09540000
opls_146-692    H    0.73825990    0.69998998    0.61469958    0.04680000
opls_146-693    H    0.70031996    0.70005010    0.26328061    0.04690000
opls_146-694    H    0.60559001    0.70020996    0.32848090    0.04680000
opls_146-695    H    0.58158010    0.79963996    0.05625970    0.04620000
opls_146-696    H    0.53401006    0.79950993    0.79093009    0.04680000
opls_146-697    H    0.54951005    0.21599005    0.54093932    0.04690000
opls_146-698    H    0.54964008    0.16842001    0.80627079    0.04620000
opls_146-699    H    0.45021008    0.14441011    0.07848090    0.04680000
opls_146-700    H    0.54995001    0.04967993    0.01328061    0.04690000
opls_146-701    H    0.55000991    0.01173999    0.36469958    0.04680000
opls_702-702    H    0.33358991    0.30270995    0.16672086    0.04820000
opls_140-703    H    0.31374991    0.32806002    0.49204974    0.09460000
opls_140-704    H    0.34721001    0.31933991    0.68935962    0.10240000
opls_140-705    H    0.34848004    0.35231997    0.47543973    0.09530000
opls_140-706    H    0.36775004    0.34131007    0.03734018    0.09540000
opls_140-707    H    0.39287990    0.33657996    0.30909024    0.09590000
opls_140-708    H    0.39234998    0.30693997    0.06556056    0.09540000
opls_702-709    H    0.55271006    0.08359002    0.58326990    0.04820000
opls_140-710    H    0.55908003    0.14910993    0.58404959    0.09460000
opls_140-711    H    0.57945997    0.12043004    0.77434964    0.10470000
opls_140-712    H    0.59629011    0.13344006    0.47967076    0.09540000
opls_140-713    H    0.59513007    0.07315991    0.33225002    0.09540000
opls_140-714    H    0.56366007    0.07718999    0.10625046    0.09590000
opls_140-715    H    0.59093990    0.10909996    0.15463011    0.09540000
opls_146-716    H    0.26174010    0.80001002    0.61469958    0.04680000
opls_146-717    H    0.29968004    0.79994990    0.26328061    0.04690000
opls_146-718    H    0.39440999    0.79979004    0.32848090    0.04680000
opls_146-719    H    0.41841990    0.70036004    0.05625970    0.04620000
opls_146-720    H    0.46598994    0.70049007    0.79093009    0.04680000
opls_146-721    H    0.45048995    0.28400995    0.54093932    0.04680000
opls_146-722    H    0.45035992    0.33157999    0.80627079    0.04630000
opls_146-723    H    0.54978992    0.35558989    0.07848090    0.04680000
opls_146-724    H    0.45004999    0.45032007    0.01328061    0.04690000
opls_146-725    H    0.44999009    0.48826001    0.36469958    0.04680000
opls_702-726    H    0.66641009    0.19729005    0.16672086    0.04820000
opls_140-727    H    0.68625009    0.17193998    0.49204974    0.09460000
opls_140-728    H    0.65278999    0.18066009    0.68935962    0.10240000
opls_140-729    H    0.65151996    0.14768003    0.47543973    0.09530000
opls_140-730    H    0.63224996    0.15868993    0.03734018    0.09540000
opls_140-731    H    0.60712010    0.16342004    0.30909024    0.09590000
opls_140-732    H    0.60765002    0.19306003    0.06556056    0.09540000
opls_702-733    H    0.44728994    0.41640998    0.58326990    0.04820000
opls_140-734    H    0.44091997    0.35089007    0.58404959    0.09460000
opls_140-735    H    0.42054003    0.37956996    0.77434964    0.10470000
opls_140-736    H    0.40370989    0.36655994    0.47967076    0.09540000
opls_140-737    H    0.40486993    0.42684009    0.33225002    0.09540000
opls_140-738    H    0.43633993    0.42281001    0.10625046    0.09590000
opls_140-739    H    0.40906010    0.39090004    0.15463011    0.09540000
opls_146-740    H    0.26174010    0.19998998    0.38530042    0.04680000
opls_146-741    H    0.29968004    0.20005010    0.73671939    0.04690000
opls_146-742    H    0.39440999    0.20020996    0.67151910    0.04680000
opls_146-743    H    0.41841990    0.29963996    0.94374030    0.04620000
opls_146-744    H    0.46598994    0.29950993    0.20906991    0.04680000
opls_146-745    H    0.45048995    0.71599005    0.45906068    0.04680000
opls_146-746    H    0.45035992    0.66842001    0.19372921    0.04620000
opls_146-747    H    0.54978992    0.64441011    0.92151910    0.04680000
opls_146-748    H    0.45004999    0.54967993    0.98671939    0.04690000
opls_146-749    H    0.44999009    0.51173999    0.63530042    0.04680000
opls_702-750    H    0.66641009    0.80270995    0.83327914    0.04820000
opls_140-751    H    0.68625009    0.82806002    0.50795026    0.09460000
opls_140-752    H    0.65278999    0.81933991    0.31064038    0.10240000
opls_140-753    H    0.65151996    0.85231997    0.52456027    0.09530000
opls_140-754    H    0.63224996    0.84131007    0.96265982    0.09540000
opls_140-755    H    0.60712010    0.83657996    0.69090976    0.09590000
opls_140-756    H    0.60765002    0.80693997    0.93443944    0.09540000
opls_702-757    H    0.44728994    0.58359002    0.41673010    0.04820000
opls_140-758    H    0.44091997    0.64910993    0.41595041    0.09460000
opls_140-759    H    0.42054003    0.62043004    0.22565036    0.10470000
opls_140-760    H    0.40370989    0.63344006    0.52032924    0.09550000
opls_140-761    H    0.40486993    0.57315991    0.66774998    0.09540000
opls_140-762    H    0.43633993    0.57718999    0.89374954    0.09590000
opls_140-763    H    0.40906010    0.60909996    0.84536989    0.09540000
opls_146-764    H    0.73825990    0.30001002    0.38530042    0.04680000
opls_146-765    H    0.70031996    0.29994990    0.73671939    0.04690000
opls_146-766    H    0.60559001    0.29979004    0.67151910    0.04680000
opls_146-767    H    0.58158010    0.20036004    0.94374030    0.04620000
opls_146-768    H    0.53401006    0.20049007    0.20906991    0.04680000
opls_146-769    H    0.54951005    0.78400995    0.45906068    0.04680000
opls_146-770    H    0.54964008    0.83157999    0.19372921    0.04620000
opls_146-771    H    0.45021008    0.85558989    0.92151910    0.04680000
opls_146-772    H    0.54995001    0.95032007    0.98671939    0.04690000
opls_146-773    H    0.55000991    0.98826001    0.63530042    0.04680000
opls_702-774    H    0.33358991    0.69729005    0.83327914    0.04820000
opls_140-775    H    0.31374991    0.67193998    0.50795026    0.09460000
opls_140-776    H    0.34721001    0.68066009    0.31064038    0.10240000
opls_140-777    H    0.34848004    0.64768003    0.52456027    0.09530000
opls_140-778    H    0.36775004    0.65868993    0.96265982    0.09540000
opls_140-779    H    0.39287990    0.66342004    0.69090976    0.09590000
opls_140-780    H    0.39234998    0.69306003    0.93443944    0.09540000
opls_702-781    H    0.55271006    0.91640998    0.41673010    0.04820000
opls_140-782    H    0.55908003    0.85089007    0.41595041    0.09470000
opls_140-783    H    0.57945997    0.87956996    0.22565036    0.10480000
opls_140-784    H    0.59629011    0.86655994    0.52032924    0.09540000
opls_140-785    H    0.59513007    0.92684009    0.66774998    0.09540000
opls_140-786    H    0.56366007    0.92281001    0.89374954    0.09590000
opls_140-787    H    0.59093990    0.89090004    0.84536989    0.09540000
opls_750-788    N    0.82585995    0.74999989    0.65412017    -0.25650000
opls_750-789    N    0.00000000    0.57586007    0.09587983    -0.25650000
opls_750-790    N    0.17414005    0.74999989    0.65412017    -0.25650000
opls_750-791    N    0.00000000    0.92413993    0.09587983    -0.25650000
opls_750-792    N    0.17414005    0.25000011    0.34587983    -0.25640000
opls_750-793    N    0.00000000    0.07586007    0.90412017    -0.25650000
opls_750-794    N    0.82585995    0.25000011    0.34587983    -0.25650000
opls_750-795    N    0.00000000    0.42413993    0.90412017    -0.25650000
opls_750-796    N    0.32585995    0.25000011    0.15412017    -0.25630000
opls_750-797    N    0.50000000    0.07586007    0.59587983    -0.25640000
opls_750-798    N    0.67414005    0.25000011    0.15412017    -0.25650000
opls_750-799    N    0.50000000    0.42413993    0.59587983    -0.25650000
opls_750-800    N    0.67414005    0.74999989    0.84587983    -0.25640000
opls_750-801    N    0.50000000    0.57586007    0.40412017    -0.25650000
opls_750-802    N    0.32585995    0.74999989    0.84587983    -0.25650000
opls_750-803    N    0.50000000    0.92413993    0.40412017    -0.25650000
