#======================================================================
# Crystal Data Generated By AuToFF
#----------------------------------------------------------------------

data_AuToFF_phase_1

_cell_length_a                         65.1000
_cell_length_b                         65.1000
_cell_length_c                         3.9500
_cell_angle_alpha                      90.00
_cell_angle_beta                       90.00
_cell_angle_gamma                      120.00
_symmetry_space_group_name_H-M_alt     'P 1'
_symmetry_space_group_IT_number        1

loop_
_space_group_symop_operation_xyz
   'x, y, z'

loop_
   _atom_site_label
   _atom_site_type_symbol
   _atom_site_fract_x
   _atom_site_fract_y
   _atom_site_fract_z
   _atom_site_charge
opls_146-0    H    0.35121000    0.44700004    0.00000000    0.08660000
opls_146-1    H    0.30342996    0.37229002    0.00000000    0.10410000
opls_146-2    H    0.37924000    0.40026003    0.00000000    0.11380000
opls_144-3    H    0.31030007    0.43375007    0.00000000    0.07190000
opls_144-4    H    0.40627005    0.43989003    0.00000000    0.07220000
opls_146-5    H    0.27855999    0.43722996    0.00000000    0.08730000
opls_146-6    H    0.24213003    0.43788003    0.00000000    0.09530000
opls_146-7    H    0.20289006    0.36038011    0.00000000    0.08710000
opls_146-8    H    0.23989995    0.36055997    0.00000000    0.12620000
opls_146-9    H    0.44123991    0.47037998    0.00000000    0.07560000
opls_146-10    H    0.47890000    0.50620000    0.00000000    0.08830000
opls_146-11    H    0.44242002    0.54722007    0.00000000    0.08590000
opls_146-12    H    0.40506003    0.51085002    0.00000000    0.06800000
opls_146-13    H    0.21171002    0.43815000    0.00000000    0.08710000
opls_146-14    H    0.17471006    0.43799001    0.00000000    0.08000000
opls_146-15    H    0.13602007    0.36132001    0.00000000    0.11680000
opls_146-16    H    0.17243999    0.36066001    0.00000000    0.08730000
opls_146-17    H    0.51014002    0.53628004    0.00000000    0.09110000
opls_146-18    H    0.54745008    0.57294010    0.00000000    0.11460000
opls_146-19    H    0.51066008    0.61282001    0.00000000    0.08710000
opls_146-20    H    0.47328999    0.57694004    0.00000000    0.08900000
opls_146-21    H    0.29788001    0.34003006    0.00000000    0.06430000
opls_146-22    H    0.29188006    0.30022003    0.00000000    0.08640000
opls_146-23    H    0.32491005    0.29302009    0.00000000    0.08380000
opls_146-24    H    0.37385007    0.36863010    0.00000000    0.12100000
opls_146-25    H    0.35197002    0.28803005    0.00000000    0.08380000
opls_146-26    H    0.42670996    0.31545002    0.00000000    0.08830000
opls_146-27    H    0.40047001    0.36372005    0.00000000    0.11220000
opls_144-28    H    0.36483001    0.26046002    0.00000000    0.07080000
opls_144-29    H    0.45452994    0.35627002    0.00000000    0.07220000
opls_146-30    H    0.55299995    0.90421005    0.00000000    0.08660000
opls_146-31    H    0.62770999    0.93114011    0.00000000    0.10410000
opls_146-32    H    0.59973993    0.97898001    0.00000000    0.11380000
opls_144-33    H    0.56625001    0.87655009    0.00000000    0.07400000
opls_144-34    H    0.56011003    0.96638012    0.00000000    0.07220000
opls_146-35    H    0.56277013    0.84133012    0.00000000    0.08730000
opls_146-36    H    0.56211995    0.80425004    0.00000000    0.09530000
opls_146-37    H    0.63961998    0.84251001    0.00000000    0.08720000
opls_146-38    H    0.63944004    0.87933999    0.00000000    0.12620000
opls_146-39    H    0.52962003    0.97086004    0.00000000    0.07570000
opls_146-40    H    0.49380013    0.97270011    0.00000000    0.08830000
opls_146-41    H    0.45278004    0.89520001    0.00000000    0.08580000
opls_146-42    H    0.48915005    0.89421009    0.00000000    0.06790000
opls_146-43    H    0.56185005    0.77356002    0.00000000    0.08710000
opls_146-44    H    0.56200997    0.73672010    0.00000000    0.08010000
opls_146-45    H    0.63867995    0.77470000    0.00000000    0.11680000
opls_146-46    H    0.63933996    0.81178007    0.00000000    0.08730000
opls_146-47    H    0.46372008    0.97386013    0.00000000    0.09110000
opls_146-48    H    0.42706008    0.97451003    0.00000000    0.11460000
opls_146-49    H    0.38718008    0.89784004    0.00000000    0.08710000
opls_146-50    H    0.42306000    0.89635010    0.00000000    0.08900000
opls_146-51    H    0.65997004    0.95785006    0.00000000    0.06430000
opls_146-52    H    0.69978012    0.99166008    0.00000000    0.08640000
opls_146-53    H    0.70698000    0.03188996    0.00000000    0.08380000
opls_146-54    H    0.63137002    0.00521992    0.00000000    0.12100000
opls_146-55    H    0.71197004    0.06394008    0.00000000    0.08380000
opls_146-56    H    0.68454993    0.11125993    0.00000000    0.08830000
opls_146-57    H    0.63628006    0.03674999    0.00000000    0.11220000
opls_144-58    H    0.73954001    0.10437004    0.00000000    0.07090000
opls_144-59    H    0.64373003    0.09826006    0.00000000    0.07230000
opls_146-60    H    0.09578998    0.64879009    0.00000000    0.08670000
opls_146-61    H    0.06885998    0.69657004    0.00000000    0.10410000
opls_146-62    H    0.02101992    0.62075996    0.00000000    0.11380000
opls_144-63    H    0.12345001    0.68970002    0.00000000    0.07200000
opls_144-64    H    0.03362001    0.59373003    0.00000000    0.07220000
opls_146-65    H    0.15867012    0.72144009    0.00000000    0.08730000
opls_146-66    H    0.19575010    0.75787010    0.00000000    0.09530000
opls_146-67    H    0.15749005    0.79711006    0.00000000    0.08710000
opls_146-68    H    0.12066000    0.76010004    0.00000000    0.12630000
opls_146-69    H    0.02914005    0.55875998    0.00000000    0.07560000
opls_146-70    H    0.02729996    0.52110007    0.00000000    0.08830000
opls_146-71    H    0.10480003    0.55758010    0.00000000    0.08580000
opls_146-72    H    0.10579000    0.59494007    0.00000000    0.06790000
opls_146-73    H    0.22643992    0.78828999    0.00000000    0.08730000
opls_146-74    H    0.26328006    0.82529007    0.00000000    0.08010000
opls_146-75    H    0.22529998    0.86397999    0.00000000    0.11680000
opls_146-76    H    0.18821999    0.82756010    0.00000000    0.08730000
opls_146-77    H    0.02613999    0.48986001    0.00000000    0.09110000
opls_146-78    H    0.02549008    0.45255005    0.00000000    0.11460000
opls_146-79    H    0.10215999    0.48933995    0.00000000    0.08720000
opls_146-80    H    0.10364995    0.52671003    0.00000000    0.08900000
opls_146-81    H    0.04215004    0.70212006    0.00000000    0.06430000
opls_146-82    H    0.00834006    0.70812006    0.00000000    0.08640000
opls_146-83    H    0.96811004    0.67509013    0.00000000    0.08380000
opls_146-84    H    0.99478006    0.62614998    0.00000000    0.12090000
opls_146-85    H    0.93606003    0.64803005    0.00000000    0.08390000
opls_146-86    H    0.88873996    0.57329005    0.00000000    0.08830000
opls_146-87    H    0.96324993    0.59952996    0.00000000    0.11220000
opls_144-88    H    0.89563007    0.63517012    0.00000000    0.07090000
opls_144-89    H    0.90174012    0.54547011    0.00000000    0.07220000
opls_146-90    H    0.64879000    0.55299996    0.00000000    0.08660000
opls_146-91    H    0.69657004    0.62770998    0.00000000    0.10410000
opls_146-92    H    0.62076000    0.59973997    0.00000000    0.11380000
opls_144-93    H    0.68970001    0.56625011    0.00000000    0.07190000
opls_144-94    H    0.59372995    0.56010997    0.00000000    0.07220000
opls_146-95    H    0.72144001    0.56277004    0.00000000    0.08730000
opls_146-96    H    0.75786997    0.56211997    0.00000000    0.09530000
opls_146-97    H    0.79711003    0.63962007    0.00000000    0.08710000
opls_146-98    H    0.76010005    0.63944003    0.00000000    0.12630000
opls_146-99    H    0.55875993    0.52962002    0.00000000    0.07560000
opls_146-100    H    0.52110000    0.49380000    0.00000000    0.08840000
opls_146-101    H    0.55758007    0.45278011    0.00000000    0.08580000
opls_146-102    H    0.59493997    0.48914998    0.00000000    0.06790000
opls_146-103    H    0.78828998    0.56185000    0.00000000    0.08710000
opls_146-104    H    0.82528994    0.56200999    0.00000000    0.08000000
opls_146-105    H    0.86397993    0.63867999    0.00000000    0.11680000
opls_146-106    H    0.82756001    0.63933999    0.00000000    0.08730000
opls_146-107    H    0.48985998    0.46371996    0.00000000    0.09110000
opls_146-108    H    0.45255001    0.42706008    0.00000000    0.11460000
opls_146-109    H    0.48934007    0.38717999    0.00000000    0.08710000
opls_146-110    H    0.52671001    0.42305996    0.00000000    0.08900000
opls_146-111    H    0.70212008    0.65997011    0.00000000    0.06430000
opls_146-112    H    0.70811994    0.69977997    0.00000000    0.08640000
opls_146-113    H    0.67509004    0.70698009    0.00000000    0.08380000
opls_146-114    H    0.62615002    0.63137008    0.00000000    0.12090000
opls_146-115    H    0.64803007    0.71197013    0.00000000    0.08380000
opls_146-116    H    0.57329004    0.68454998    0.00000000    0.08830000
opls_146-117    H    0.59953008    0.63628013    0.00000000    0.11220000
opls_144-118    H    0.63516999    0.73953998    0.00000000    0.07080000
opls_144-119    H    0.54547006    0.64372998    0.00000000    0.07220000
opls_146-120    H    0.44700005    0.09578995    0.00000000    0.08660000
opls_146-121    H    0.37229009    0.06886007    0.00000000    0.10410000
opls_146-122    H    0.40025992    0.02101999    0.00000000    0.11390000
opls_144-123    H    0.43375008    0.12345009    0.00000000    0.07400000
opls_144-124    H    0.43989006    0.03362006    0.00000000    0.07220000
opls_146-125    H    0.43722996    0.15867005    0.00000000    0.08730000
opls_146-126    H    0.43788005    0.19574996    0.00000000    0.09530000
opls_146-127    H    0.36038002    0.15748999    0.00000000    0.08710000
opls_146-128    H    0.36055996    0.12066001    0.00000000    0.12620000
opls_146-129    H    0.47037997    0.02913996    0.00000000    0.07570000
opls_146-130    H    0.50619996    0.02730007    0.00000000    0.08840000
opls_146-131    H    0.54721996    0.10479999    0.00000000    0.08580000
opls_146-132    H    0.51085004    0.10579009    0.00000000    0.06790000
opls_146-133    H    0.43814995    0.22643998    0.00000000    0.08710000
opls_146-134    H    0.43798996    0.26328008    0.00000000    0.08000000
opls_146-135    H    0.36132005    0.22530000    0.00000000    0.11680000
opls_146-136    H    0.36066004    0.18821993    0.00000000    0.08730000
opls_146-137    H    0.53628001    0.02614005    0.00000000    0.09110000
opls_146-138    H    0.57293992    0.02548997    0.00000000    0.11460000
opls_146-139    H    0.61281992    0.10215996    0.00000000    0.08710000
opls_146-140    H    0.57694009    0.10365008    0.00000000    0.08900000
opls_146-141    H    0.34002996    0.04214994    0.00000000    0.06430000
opls_146-142    H    0.30021988    0.00833992    0.00000000    0.08640000
opls_146-143    H    0.29302000    0.96811004    0.00000000    0.08380000
opls_146-144    H    0.36862998    0.99478008    0.00000000    0.12090000
opls_146-145    H    0.28803005    0.93606009    0.00000000    0.08380000
opls_146-146    H    0.31545007    0.88874007    0.00000000    0.08830000
opls_146-147    H    0.36371994    0.96325001    0.00000000    0.11220000
opls_144-148    H    0.26046008    0.89563014    0.00000000    0.07080000
opls_144-149    H    0.35627006    0.90174012    0.00000000    0.07220000
opls_146-150    H    0.90421011    0.35121009    0.00000000    0.08660000
opls_146-151    H    0.93114002    0.30342996    0.00000000    0.10420000
opls_146-152    H    0.97898008    0.37924004    0.00000000    0.11380000
opls_144-153    H    0.87654999    0.31029998    0.00000000    0.07190000
opls_144-154    H    0.96637999    0.40626997    0.00000000    0.07220000
opls_146-155    H    0.84132996    0.27856008    0.00000000    0.08730000
opls_146-156    H    0.80424998    0.24213008    0.00000000    0.09530000
opls_146-157    H    0.84250995    0.20288994    0.00000000    0.08720000
opls_146-158    H    0.87934000    0.23989996    0.00000000    0.12620000
opls_146-159    H    0.97085995    0.44124002    0.00000000    0.07560000
opls_146-160    H    0.97269998    0.47890011    0.00000000    0.08830000
opls_146-161    H    0.89520006    0.44242008    0.00000000    0.08580000
opls_146-162    H    0.89421008    0.40506011    0.00000000    0.06790000
opls_146-163    H    0.77356008    0.21171001    0.00000000    0.08710000
opls_146-164    H    0.73671994    0.17470993    0.00000000    0.08010000
opls_146-165    H    0.77470002    0.13602001    0.00000000    0.11690000
opls_146-166    H    0.81178010    0.17244008    0.00000000    0.08730000
opls_146-167    H    0.97386001    0.51013999    0.00000000    0.09110000
opls_146-168    H    0.97451001    0.54745012    0.00000000    0.11460000
opls_146-169    H    0.89784001    0.51066005    0.00000000    0.08710000
opls_146-170    H    0.89635005    0.47328997    0.00000000    0.08900000
opls_146-171    H    0.95784996    0.29787994    0.00000000    0.06430000
opls_146-172    H    0.99165994    0.29187994    0.00000000    0.08640000
opls_146-173    H    0.03189005    0.32491005    0.00000000    0.08380000
opls_146-174    H    0.00521994    0.37385002    0.00000000    0.12090000
opls_146-175    H    0.06393997    0.35196995    0.00000000    0.08390000
opls_146-176    H    0.11126004    0.42670995    0.00000000    0.08830000
opls_146-177    H    0.03675007    0.40047004    0.00000000    0.11220000
opls_144-178    H    0.10437002    0.36483005    0.00000000    0.07080000
opls_144-179    H    0.09825997    0.45453007    0.00000000    0.07220000
opls_145-180    C    0.68992007    0.68459007    0.00000000    -0.07990000
opls_145-181    C    0.67095999    0.68848004    0.00000000    -0.11610000
opls_700-182    C    0.65927998    0.61755996    0.00000000    0.07080000
opls_145-183    C    0.63625003    0.59735997    0.00000000    -0.16130000
opls_700-184    C    0.63198998    0.57425000    0.00000000    0.05900000
opls_145-185    C    0.65177006    0.57114011    0.00000000    -0.16160000
opls_700-186    C    0.67514997    0.59006000    0.00000000    0.01630000
opls_145-187    C    0.67832003    0.61284006    0.00000000    -0.16270000
opls_142-188    C    0.60748992    0.55500996    0.00000000    0.07690000
opls_142-189    C    0.69460000    0.58505009    0.00000000    0.07760000
opls_145-190    C    0.48926003    0.40399995    0.00000000    -0.14850000
opls_145-191    C    0.51075001    0.42471999    0.00000000    -0.11630000
opls_700-192    C    0.51242008    0.44739008    0.00000000    0.07490000
opls_145-193    C    0.49039995    0.44713999    0.00000000    -0.11680000
opls_145-194    C    0.46901999    0.42625995    0.00000000    -0.15320000
opls_700-195    C    0.53519009    0.46933011    0.00000000    0.07500000
opls_145-196    C    0.55711996    0.46939999    0.00000000    -0.11640000
opls_145-197    C    0.57858008    0.49015001    0.00000000    -0.15210000
opls_145-198    C    0.58013008    0.51243006    0.00000000    0.21480000
opls_145-199    C    0.55865001    0.51270002    0.00000000    -0.15440000
opls_145-200    C    0.53703002    0.49208001    0.00000000    -0.11610000
opls_145-201    C    0.37840000    0.22572996    0.00000000    -0.15350000
opls_145-202    C    0.37809998    0.20443008    0.00000000    -0.12330000
opls_700-203    C    0.39935994    0.20322004    0.00000000    0.07260000
opls_145-204    C    0.42084006    0.22550008    0.00000000    -0.11810000
opls_145-205    C    0.42087006    0.24663997    0.00000000    -0.15340000
opls_700-206    C    0.39918004    0.18072998    0.00000000    0.06870000
opls_145-207    C    0.37769993    0.15844993    0.00000000    -0.11680000
opls_145-208    C    0.37769005    0.13731004    0.00000000    -0.15150000
opls_145-209    C    0.39878000    0.13639994    0.00000000    0.21350000
opls_145-210    C    0.42015990    0.15823992    0.00000000    -0.15400000
opls_145-211    C    0.42043999    0.17953005    0.00000000    -0.12330000
opls_700-212    C    0.35836004    0.02143007    0.00000000    0.06960000
opls_145-213    C    0.33814995    0.02445996    0.00000000    -0.11610000
opls_700-214    C    0.33063999    0.97773006    0.00000000    0.06950000
opls_145-215    C    0.35358000    0.99779011    0.00000000    -0.13660000
opls_700-216    C    0.32653004    0.95353013    0.00000000    0.07120000
opls_145-217    C    0.30337998    0.93343000    0.00000000    -0.15540000
opls_700-218    C    0.29884001    0.91019001    0.00000000    0.07430000
opls_145-219    C    0.31852013    0.90692013    0.00000000    -0.16320000
opls_700-220    C    0.34193995    0.92571000    0.00000000    0.07650000
opls_145-221    C    0.34539005    0.94856013    0.00000000    -0.15600000
opls_142-222    C    0.27438998    0.89076000    0.00000000    0.07660000
opls_142-223    C    0.36126000    0.92057008    0.00000000    0.07670000
opls_145-224    C    0.40406003    0.93637014    0.00000000    0.21480000
opls_145-225    C    0.24755997    0.84777002    0.00000000    0.21380000
opls_145-226    C    0.31541004    0.00533007    0.00000000    -0.07990000
opls_145-227    C    0.31152009    0.98248012    0.00000000    -0.11610000
opls_700-228    C    0.38244003    0.04171999    0.00000000    0.07080000
opls_145-229    C    0.40263993    0.03889000    0.00000000    -0.16140000
opls_700-230    C    0.42575003    0.05774000    0.00000000    0.05900000
opls_145-231    C    0.42886002    0.08063003    0.00000000    -0.16160000
opls_700-232    C    0.40993997    0.08509008    0.00000000    0.01630000
opls_145-233    C    0.38715999    0.06548004    0.00000000    -0.16270000
opls_142-234    C    0.44499007    0.05247999    0.00000000    0.07690000
opls_142-235    C    0.41494999    0.10955005    0.00000000    0.07760000
opls_145-236    C    0.59600005    0.08526001    0.00000000    -0.14850000
opls_145-237    C    0.57527997    0.08602998    0.00000000    -0.11630000
opls_700-238    C    0.55260995    0.06503004    0.00000000    0.07490000
opls_145-239    C    0.55285993    0.04325995    0.00000000    -0.11680000
opls_145-240    C    0.57374003    0.04275993    0.00000000    -0.15310000
opls_700-241    C    0.53066992    0.06585997    0.00000000    0.07490000
opls_145-242    C    0.53059994    0.08772000    0.00000000    -0.11640000
opls_145-243    C    0.50985004    0.08843002    0.00000000    -0.15210000
opls_145-244    C    0.48756999    0.06770004    0.00000000    0.21490000
opls_145-245    C    0.48730003    0.04594999    0.00000000    -0.15440000
opls_145-246    C    0.50791999    0.04494996    0.00000000    -0.11610000
opls_145-247    C    0.77427005    0.15267005    0.00000000    -0.15350000
opls_145-248    C    0.79557002    0.17366999    0.00000000    -0.12330000
opls_700-249    C    0.79677999    0.19614000    0.00000000    0.07280000
opls_145-250    C    0.77449998    0.19534005    0.00000000    -0.11800000
opls_145-251    C    0.75335999    0.17422996    0.00000000    -0.15340000
opls_700-252    C    0.81927002    0.21845002    0.00000000    0.06870000
opls_145-253    C    0.84155003    0.21924998    0.00000000    -0.11680000
opls_145-254    C    0.86268997    0.24037993    0.00000000    -0.15150000
opls_145-255    C    0.86360003    0.26238008    0.00000000    0.21350000
opls_145-256    C    0.84175999    0.26191998    0.00000000    -0.15400000
opls_145-257    C    0.82047011    0.24091010    0.00000000    -0.12320000
opls_700-258    C    0.97857012    0.33693011    0.00000000    0.06950000
opls_145-259    C    0.97553990    0.31368994    0.00000000    -0.11610000
opls_700-260    C    0.02227007    0.35291003    0.00000000    0.06960000
opls_145-261    C    0.00221008    0.35579004    0.00000000    -0.13670000
opls_700-262    C    0.04647007    0.37300005    0.00000000    0.07120000
opls_145-263    C    0.06656990    0.36994994    0.00000000    -0.15530000
opls_700-264    C    0.08980997    0.38865006    0.00000000    0.07430000
opls_145-265    C    0.09308005    0.41160004    0.00000000    -0.16320000
opls_700-266    C    0.07428997    0.41623002    0.00000000    0.07650000
opls_145-267    C    0.05144003    0.39682998    0.00000000    -0.15600000
opls_142-268    C    0.10924006    0.38363003    0.00000000    0.07660000
opls_142-269    C    0.07942994    0.44068998    0.00000000    0.07670000
opls_145-270    C    0.06363000    0.46769011    0.00000000    0.21470000
opls_145-271    C    0.15223002    0.39978999    0.00000000    0.21380000
opls_145-272    C    0.99466997    0.31008004    0.00000000    -0.07990000
opls_145-273    C    0.01752001    0.32904001    0.00000000    -0.11610000
opls_700-274    C    0.95827999    0.34072005    0.00000000    0.07080000
opls_145-275    C    0.96111004    0.36375003    0.00000000    -0.16140000
opls_700-276    C    0.94225999    0.36801000    0.00000000    0.05900000
opls_145-277    C    0.91937001    0.34823004    0.00000000    -0.16160000
opls_700-278    C    0.91490999    0.32485010    0.00000000    0.01630000
opls_145-279    C    0.93452007    0.32168008    0.00000000    -0.16270000
opls_142-280    C    0.94752000    0.39251005    0.00000000    0.07690000
opls_142-281    C    0.89044994    0.30540004    0.00000000    0.07760000
opls_145-282    C    0.91474007    0.51074005    0.00000000    -0.14850000
opls_145-283    C    0.91397002    0.48925002    0.00000000    -0.11630000
opls_700-284    C    0.93497006    0.48758005    0.00000000    0.07490000
opls_145-285    C    0.95673997    0.50960007    0.00000000    -0.11680000
opls_145-286    C    0.95723998    0.53098012    0.00000000    -0.15330000
opls_700-287    C    0.93414007    0.46481010    0.00000000    0.07490000
opls_145-288    C    0.91227994    0.44288001    0.00000000    -0.11640000
opls_145-289    C    0.91157004    0.42141996    0.00000000    -0.15200000
opls_145-290    C    0.93230001    0.41987007    0.00000000    0.21490000
opls_145-291    C    0.95404996    0.44134999    0.00000000    -0.15440000
opls_145-292    C    0.95504999    0.46297003    0.00000000    -0.11600000
opls_145-293    C    0.84732995    0.62160000    0.00000000    -0.15350000
opls_145-294    C    0.82633009    0.62190011    0.00000000    -0.12330000
opls_700-295    C    0.80385992    0.60063996    0.00000000    0.07260000
opls_145-296    C    0.80466005    0.57916005    0.00000000    -0.11810000
opls_145-297    C    0.82577011    0.57913007    0.00000000    -0.15340000
opls_700-298    C    0.78154994    0.60082000    0.00000000    0.06870000
opls_145-299    C    0.78075004    0.62230009    0.00000000    -0.11670000
opls_145-300    C    0.75961999    0.62231002    0.00000000    -0.15150000
opls_145-301    C    0.73761997    0.60121997    0.00000000    0.21360000
opls_145-302    C    0.73808011    0.57984010    0.00000000    -0.15400000
opls_145-303    C    0.75909000    0.57956003    0.00000000    -0.12330000
opls_700-304    C    0.66306992    0.64163999    0.00000000    0.06950000
opls_145-305    C    0.68630999    0.66185009    0.00000000    -0.11610000
opls_700-306    C    0.64709003    0.66936008    0.00000000    0.06950000
opls_145-307    C    0.64421001    0.64642003    0.00000000    -0.13670000
opls_700-308    C    0.62699998    0.67347000    0.00000000    0.07120000
opls_145-309    C    0.63004997    0.69662006    0.00000000    -0.15540000
opls_700-310    C    0.61135010    0.70116011    0.00000000    0.07450000
opls_145-311    C    0.58840006    0.68148000    0.00000000    -0.16310000
opls_700-312    C    0.58376993    0.65805998    0.00000000    0.07650000
opls_145-313    C    0.60317001    0.65461007    0.00000000    -0.15590000
opls_142-314    C    0.61636996    0.72560996    0.00000000    0.07660000
opls_142-315    C    0.55931000    0.63874012    0.00000000    0.07670000
opls_145-316    C    0.53230999    0.59594010    0.00000000    0.21470000
opls_145-317    C    0.60021001    0.75243999    0.00000000    0.21380000
opls_145-318    C    0.31008002    0.31541011    0.00000000    -0.07990000
opls_145-319    C    0.32904001    0.31151996    0.00000000    -0.11610000
opls_700-320    C    0.34072002    0.38244004    0.00000000    0.07080000
opls_145-321    C    0.36374997    0.40264003    0.00000000    -0.16140000
opls_700-322    C    0.36801002    0.42575000    0.00000000    0.05900000
opls_145-323    C    0.34823003    0.42886007    0.00000000    -0.16160000
opls_700-324    C    0.32485003    0.40994000    0.00000000    0.01630000
opls_145-325    C    0.32167997    0.38715994    0.00000000    -0.16270000
opls_142-326    C    0.39251008    0.44499004    0.00000000    0.07690000
opls_142-327    C    0.30540008    0.41495009    0.00000000    0.07770000
opls_145-328    C    0.51073997    0.59600005    0.00000000    -0.14840000
opls_145-329    C    0.48924999    0.57528001    0.00000000    -0.11630000
opls_700-330    C    0.48758001    0.55261009    0.00000000    0.07490000
opls_145-331    C    0.50960005    0.55286001    0.00000000    -0.11670000
opls_145-332    C    0.53098001    0.57374005    0.00000000    -0.15330000
opls_700-333    C    0.46481000    0.53067007    0.00000000    0.07490000
opls_145-334    C    0.44288004    0.53060001    0.00000000    -0.11620000
opls_145-335    C    0.42141992    0.50984999    0.00000000    -0.15210000
opls_145-336    C    0.41987001    0.48757012    0.00000000    0.21480000
opls_145-337    C    0.44134999    0.48729998    0.00000000    -0.15440000
opls_145-338    C    0.46296998    0.50791999    0.00000000    -0.11610000
opls_145-339    C    0.62160000    0.77427004    0.00000000    -0.15350000
opls_145-340    C    0.62190010    0.79557010    0.00000000    -0.12330000
opls_700-341    C    0.60064015    0.79678014    0.00000000    0.07260000
opls_145-342    C    0.57916003    0.77450010    0.00000000    -0.11810000
opls_145-343    C    0.57912994    0.75336003    0.00000000    -0.15330000
opls_700-344    C    0.60081996    0.81927002    0.00000000    0.06870000
opls_145-345    C    0.62230007    0.84155007    0.00000000    -0.11680000
opls_145-346    C    0.62231004    0.86269013    0.00000000    -0.15140000
opls_145-347    C    0.60122000    0.86360006    0.00000000    0.21350000
opls_145-348    C    0.57984010    0.84176008    0.00000000    -0.15390000
opls_145-349    C    0.57956010    0.82047013    0.00000000    -0.12330000
opls_700-350    C    0.64164004    0.97857010    0.00000000    0.06960000
opls_145-351    C    0.66185005    0.97554004    0.00000000    -0.11610000
opls_700-352    C    0.66936001    0.02226994    0.00000000    0.06950000
opls_145-353    C    0.64642009    0.00221007    0.00000000    -0.13670000
opls_700-354    C    0.67347005    0.04647005    0.00000000    0.07120000
opls_145-355    C    0.69662002    0.06657000    0.00000000    -0.15550000
opls_700-356    C    0.70115999    0.08980999    0.00000000    0.07440000
opls_145-357    C    0.68147996    0.09308004    0.00000000    -0.16310000
opls_700-358    C    0.65806005    0.07429000    0.00000000    0.07650000
opls_145-359    C    0.65461004    0.05144005    0.00000000    -0.15600000
opls_142-360    C    0.72561002    0.10924000    0.00000000    0.07660000
opls_142-361    C    0.63874000    0.07942992    0.00000000    0.07670000
opls_145-362    C    0.59594006    0.06363003    0.00000000    0.21470000
opls_145-363    C    0.75244003    0.15222998    0.00000000    0.21390000
opls_145-364    C    0.68459005    0.99467011    0.00000000    -0.07990000
opls_145-365    C    0.68848000    0.01752005    0.00000000    -0.11610000
opls_700-366    C    0.61755997    0.95828001    0.00000000    0.07080000
opls_145-367    C    0.59736007    0.96111000    0.00000000    -0.16130000
opls_700-368    C    0.57424997    0.94226000    0.00000000    0.05900000
opls_145-369    C    0.57114007    0.91937015    0.00000000    -0.16160000
opls_700-370    C    0.59006012    0.91491009    0.00000000    0.01630000
opls_145-371    C    0.61284010    0.93452014    0.00000000    -0.16260000
opls_142-372    C    0.55500993    0.94752001    0.00000000    0.07690000
opls_142-373    C    0.58505010    0.89045013    0.00000000    0.07760000
opls_145-374    C    0.40399995    0.91473999    0.00000000    -0.14850000
opls_145-375    C    0.42472003    0.91397002    0.00000000    -0.11630000
opls_700-376    C    0.44739014    0.93497013    0.00000000    0.07490000
opls_145-377    C    0.44714007    0.95674005    0.00000000    -0.11680000
opls_145-378    C    0.42625997    0.95724007    0.00000000    -0.15330000
opls_700-379    C    0.46933008    0.93414003    0.00000000    0.07500000
opls_145-380    C    0.46940006    0.91228000    0.00000000    -0.11640000
opls_145-381    C    0.49014996    0.91156998    0.00000000    -0.15210000
opls_145-382    C    0.51243010    0.93230013    0.00000000    0.21480000
opls_145-383    C    0.51269997    0.95405001    0.00000000    -0.15440000
opls_145-384    C    0.49208001    0.95505004    0.00000000    -0.11610000
opls_145-385    C    0.22573004    0.84733013    0.00000000    -0.15350000
opls_145-386    C    0.20442998    0.82633001    0.00000000    -0.12330000
opls_700-387    C    0.20322001    0.80386000    0.00000000    0.07260000
opls_145-388    C    0.22550011    0.80466013    0.00000000    -0.11810000
opls_145-389    C    0.24664001    0.82577004    0.00000000    -0.15330000
opls_700-390    C    0.18072998    0.78154998    0.00000000    0.06870000
opls_145-391    C    0.15844997    0.78075002    0.00000000    -0.11680000
opls_145-392    C    0.13731003    0.75962007    0.00000000    -0.15150000
opls_145-393    C    0.13640006    0.73762009    0.00000000    0.21350000
opls_145-394    C    0.15824001    0.73808002    0.00000000    -0.15400000
opls_145-395    C    0.17952998    0.75909007    0.00000000    -0.12330000
opls_700-396    C    0.02142996    0.66307007    0.00000000    0.06950000
opls_145-397    C    0.02446010    0.68631006    0.00000000    -0.11610000
opls_700-398    C    0.97772993    0.64708997    0.00000000    0.06950000
opls_145-399    C    0.99778992    0.64420996    0.00000000    -0.13670000
opls_700-400    C    0.95353002    0.62700013    0.00000000    0.07120000
opls_145-401    C    0.93343010    0.63005006    0.00000000    -0.15550000
opls_700-402    C    0.91019011    0.61135012    0.00000000    0.07430000
opls_145-403    C    0.90691995    0.58839996    0.00000000    -0.16320000
opls_700-404    C    0.92571003    0.58376998    0.00000000    0.07650000
opls_145-405    C    0.94855997    0.60317002    0.00000000    -0.15600000
opls_142-406    C    0.89075994    0.61636997    0.00000000    0.07670000
opls_142-407    C    0.92057006    0.55931002    0.00000000    0.07670000
opls_145-408    C    0.93637009    0.53231007    0.00000000    0.21490000
opls_145-409    C    0.84776998    0.60021001    0.00000000    0.21380000
opls_145-410    C    0.00533003    0.68991996    0.00000000    -0.07990000
opls_145-411    C    0.98247999    0.67095999    0.00000000    -0.11610000
opls_700-412    C    0.04172010    0.65928013    0.00000000    0.07080000
opls_145-413    C    0.03888996    0.63624997    0.00000000    -0.16130000
opls_700-414    C    0.05774001    0.63199000    0.00000000    0.05900000
opls_145-415    C    0.08062999    0.65176996    0.00000000    -0.16160000
opls_700-416    C    0.08509009    0.67515008    0.00000000    0.01630000
opls_145-417    C    0.06548002    0.67832010    0.00000000    -0.16260000
opls_142-418    C    0.05248008    0.60749012    0.00000000    0.07690000
opls_142-419    C    0.10955014    0.69460013    0.00000000    0.07760000
opls_145-420    C    0.08525993    0.48925995    0.00000000    -0.14850000
opls_145-421    C    0.08602998    0.51074998    0.00000000    -0.11630000
opls_700-422    C    0.06502994    0.51241995    0.00000000    0.07490000
opls_145-423    C    0.04326012    0.49040011    0.00000000    -0.11680000
opls_145-424    C    0.04276011    0.46902006    0.00000000    -0.15330000
opls_700-425    C    0.06586002    0.53519008    0.00000000    0.07490000
opls_145-426    C    0.08772006    0.55711999    0.00000000    -0.11640000
opls_145-427    C    0.08842996    0.57858004    0.00000000    -0.15210000
opls_145-428    C    0.06770007    0.58013010    0.00000000    0.21490000
opls_145-429    C    0.04595004    0.55865001    0.00000000    -0.15440000
opls_145-430    C    0.04495001    0.53702997    0.00000000    -0.11610000
opls_145-431    C    0.15267005    0.37840000    0.00000000    -0.15350000
opls_145-432    C    0.17367000    0.37810007    0.00000000    -0.12320000
opls_700-433    C    0.19614008    0.39936004    0.00000000    0.07260000
opls_145-434    C    0.19533995    0.42083995    0.00000000    -0.11810000
opls_145-435    C    0.17422998    0.42087011    0.00000000    -0.15330000
opls_700-436    C    0.21845006    0.39918000    0.00000000    0.06870000
opls_145-437    C    0.21925004    0.37770009    0.00000000    -0.11680000
opls_145-438    C    0.24038001    0.37768998    0.00000000    -0.15150000
opls_145-439    C    0.26238003    0.39878003    0.00000000    0.21350000
opls_145-440    C    0.26191998    0.42016008    0.00000000    -0.15400000
opls_145-441    C    0.24091000    0.42043997    0.00000000    -0.12330000
opls_700-442    C    0.33692993    0.35836001    0.00000000    0.06950000
opls_145-443    C    0.31369010    0.33815008    0.00000000    -0.11610000
opls_700-444    C    0.35291006    0.33064010    0.00000000    0.06950000
opls_145-445    C    0.35578999    0.35357997    0.00000000    -0.13670000
opls_700-446    C    0.37300002    0.32653000    0.00000000    0.07120000
opls_145-447    C    0.36995003    0.30337994    0.00000000    -0.15550000
opls_700-448    C    0.38864999    0.29884007    0.00000000    0.07430000
opls_145-449    C    0.41159994    0.31852000    0.00000000    -0.16320000
opls_700-450    C    0.41623007    0.34194002    0.00000000    0.07660000
opls_145-451    C    0.39683008    0.34539011    0.00000000    -0.15600000
opls_142-452    C    0.38363004    0.27439004    0.00000000    0.07660000
opls_142-453    C    0.44069009    0.36126006    0.00000000    0.07670000
opls_145-454    C    0.46769010    0.40406008    0.00000000    0.21470000
opls_145-455    C    0.39978999    0.24756001    0.00000000    0.21380000
opls_750-456    N    0.39731995    0.46688998    0.00000000    -0.26940000
opls_750-457    N    0.28352999    0.39767996    0.00000000    -0.27180000
opls_750-458    N    0.44534002    0.38313995    0.00000000    -0.27160000
opls_750-459    N    0.40091011    0.26981008    0.00000000    -0.27290000
opls_750-460    N    0.53310997    0.93043009    0.00000000    -0.26940000
opls_750-461    N    0.60232000    0.88585013    0.00000000    -0.27190000
opls_750-462    N    0.61686009    0.06220005    0.00000000    -0.27160000
opls_750-463    N    0.73018995    0.13110003    0.00000000    -0.27290000
opls_750-464    N    0.06957001    0.60268011    0.00000000    -0.26930000
opls_750-465    N    0.11415010    0.71647009    0.00000000    -0.27180000
opls_750-466    N    0.93780004    0.55466000    0.00000000    -0.27160000
opls_750-467    N    0.86890003    0.59909007    0.00000000    -0.27290000
opls_750-468    N    0.60268005    0.53311002    0.00000000    -0.26920000
opls_750-469    N    0.71647001    0.60232004    0.00000000    -0.27190000
opls_750-470    N    0.55465998    0.61686005    0.00000000    -0.27160000
opls_750-471    N    0.59908998    0.73019010    0.00000000    -0.27290000
opls_750-472    N    0.46689011    0.06957009    0.00000000    -0.26930000
opls_750-473    N    0.39768009    0.11415005    0.00000000    -0.27190000
opls_750-474    N    0.38314000    0.93780013    0.00000000    -0.27160000
opls_750-475    N    0.26981005    0.86889997    0.00000000    -0.27260000
opls_750-476    N    0.93043008    0.39732007    0.00000000    -0.26940000
opls_750-477    N    0.88584999    0.28353008    0.00000000    -0.27180000
opls_750-478    N    0.06219996    0.44534000    0.00000000    -0.27160000
opls_750-479    N    0.13110006    0.40091010    0.00000000    -0.27290000
