#======================================================================
# Crystal Data Generated By AuToFF
#----------------------------------------------------------------------

data_AuToFF_phase_1

_cell_length_a                         52.0050
_cell_length_b                         52.0050
_cell_length_c                         8.0140
_cell_angle_alpha                      90.00
_cell_angle_beta                       90.00
_cell_angle_gamma                      120.00
_symmetry_space_group_name_H-M_alt     'P 1'
_symmetry_space_group_IT_number        1

loop_
_space_group_symop_operation_xyz
   'x, y, z'

loop_
   _atom_site_label
   _atom_site_type_symbol
   _atom_site_fract_x
   _atom_site_fract_y
   _atom_site_fract_z
   _atom_site_charge
opls_145-0    C    0.41559991    0.72537000    0.13526953    -0.07860000
opls_145-1    C    0.44649991    0.73946998    0.13912029    -0.11460000
opls_145-2    C    0.46157003    0.72685009    0.06163963    0.22950000
opls_145-3    C    0.44514010    0.69980006    0.97633017    -0.14110000
opls_145-4    C    0.41416004    0.68586993    0.96973047    -0.08100000
opls_700-5    C    0.39891002    0.69827999    0.05058023    0.07950000
opls_142-6    C    0.51118996    0.73301005    0.02760045    0.01580000
opls_700-7    C    0.54358004    0.75222997    0.04718992    0.08690000
opls_145-8    C    0.56252997    0.74110994    0.00827053    -0.07880000
opls_145-9    C    0.59322999    0.75889994    0.02895059    -0.07880000
opls_700-10    C    0.60532012    0.78791012    0.09114050    0.08100000
opls_145-11    C    0.58659992    0.79946001    0.12353007    -0.09820000
opls_145-12    C    0.55593009    0.78166001    0.10394060    -0.07880000
opls_700-13    C    0.63767006    0.80729012    0.10532942    0.00170000
opls_624-14    C    0.65499997    0.80620992    0.23849014    0.07780000
opls_624-15    C    0.68539992    0.82524999    0.24340030    0.07800000
opls_700-16    C    0.70034007    0.84593002    0.11381957    0.00280000
opls_145-17    C    0.68319003    0.84761994    0.98346019    -0.08100000
opls_145-18    C    0.65233003    0.82891003    0.98042051    -0.08510000
opls_700-19    C    0.73262009    0.86601010    0.10784003    0.07840000
opls_145-20    C    0.75132005    0.85609995    0.04515972    -0.07880000
opls_145-21    C    0.78197002    0.87561007    0.03577989    -0.08090000
opls_700-22    C    0.79422006    0.90540004    0.08674944    0.07820000
opls_145-23    C    0.77529003    0.91528999    0.14633017    -0.07880000
opls_145-24    C    0.74466997    0.89577009    0.15587971    -0.07860000
opls_142-25    C    0.82647005    0.92648995    0.07920015    0.01580000
opls_558-26    C    0.67231005    0.79759002    0.46152982    0.23260000
opls_145-27    C    0.87660992    0.93633993    0.02071001    0.22060000
opls_145-28    C    0.89250006    0.92645997    0.92565011    -0.14130000
opls_145-29    C    0.92349005    0.94305009    0.91667956    -0.07880000
opls_700-30    C    0.93921994    0.96979993    0.00498003    0.07340000
opls_145-31    C    0.92327007    0.97950004    0.10250062    -0.07870000
opls_145-32    C    0.89228995    0.96301006    0.11046044    -0.14120000
opls_142-33    C    0.61800999    0.76419995    0.42898053    0.06830000
opls_142-34    C    0.72656008    0.83359012    0.44925006    0.06720000
opls_143-35    C    0.59976997    0.77565992    0.51683055    -0.30830000
opls_143-36    C    0.74057012    0.81477009    0.40499002    -0.30810000
opls_700-37    C    0.36585002    0.68331008    0.04627028    0.07080000
opls_145-38    C    0.97221000    0.98710013    0.99933991    0.04770000
opls_145-39    C    0.35137012    0.70000011    0.04565011    -0.06290000
opls_145-40    C    0.98726995    0.01473989    0.99897055    -0.12060000
opls_145-41    C    0.74443001    0.39310000    0.69117045    -0.08080000
opls_145-42    C    0.77542999    0.40942012    0.69453956    -0.14140000
opls_145-43    C    0.79223992    0.40264001    0.58514974    0.21800000
opls_145-44    C    0.77732996    0.37855994    0.47324058    -0.14070000
opls_145-45    C    0.74631004    0.36207995    0.47092962    -0.07850000
opls_700-46    C    0.72960015    0.36905012    0.57980035    0.07340000
opls_142-47    C    0.84296006    0.41942997    0.49151984    0.01580000
opls_700-48    C    0.87530003    0.43841009    0.51594959    0.07120000
opls_145-49    C    0.89464995    0.43550008    0.40601947    -0.09820000
opls_145-50    C    0.92534994    0.45309003    0.42517969    -0.09680000
opls_700-51    C    0.93729993    0.47391993    0.55354005    0.07960000
opls_145-52    C    0.91815008    0.47720008    0.66304966    -0.07880000
opls_145-53    C    0.88728002    0.45925997    0.64582980    -0.08090000
opls_700-54    C    0.96972997    0.49363011    0.56370976    0.00150000
opls_624-55    C    0.98953986    0.48509991    0.63064013    0.07790000
opls_624-56    C    0.01993004    0.50434004    0.63031944    0.07790000
opls_700-57    C    0.03241005    0.53296009    0.55835039    -0.00030000
opls_145-58    C    0.01285001    0.54151005    0.49028949    -0.08510000
opls_145-59    C    0.98203991    0.52217001    0.49292987    -0.08510000
opls_700-60    C    0.06453003    0.55380998    0.54867981    0.07910000
opls_145-61    C    0.08207003    0.54902998    0.43426004    -0.09820000
opls_145-62    C    0.11292007    0.56733999    0.43501997    -0.07880000
opls_700-63    C    0.12652987    0.59105992    0.54843025    0.07460000
opls_145-64    C    0.10870001    0.59670009    0.65670951    -0.07880000
opls_145-65    C    0.07785993    0.57821001    0.65664961    -0.09820000
opls_142-66    C    0.15913002    0.60942012    0.56039057    0.01580000
opls_558-67    C    0.01069996    0.46424003    0.75709009    0.23260000
opls_145-68    C    0.20807999    0.61622998    0.49021962    0.22340000
opls_145-69    C    0.22209000    0.60367004    0.40039057    -0.11710000
opls_145-70    C    0.25289997    0.61637008    0.40478038    -0.07880000
opls_700-71    C    0.27045001    0.64206991    0.49958947    0.07480000
opls_145-72    C    0.25645010    0.65468003    0.59016970    -0.07860000
opls_145-73    C    0.22558993    0.64199997    0.58551036    -0.14160000
opls_142-74    C    0.95583015    0.43360011    0.75984028    0.06830000
opls_142-75    C    0.06417004    0.50209991    0.75863988    0.06720000
opls_143-76    C    0.94575003    0.43950006    0.92591964    -0.30780000
opls_143-77    C    0.07814007    0.48888008    0.64528949    -0.30820000
opls_700-78    C    0.69673009    0.35139000    0.57807961    0.07410000
opls_145-79    C    0.30332002    0.65586992    0.50228974    0.05060000
opls_145-80    C    0.67976987    0.36554993    0.57807961    -0.04200000
opls_145-81    C    0.32149004    0.68335004    0.50243948    -0.10760000
opls_145-82    C    0.27463008    0.69023006    0.13526953    -0.07860000
opls_145-83    C    0.26053010    0.70703001    0.13912029    -0.11460000
opls_145-84    C    0.27315000    0.73471995    0.06163963    0.22970000
opls_145-85    C    0.30020002    0.74533995    0.97633017    -0.14110000
opls_145-86    C    0.31413000    0.72829000    0.96973047    -0.08100000
opls_700-87    C    0.30172007    0.70063003    0.05058023    0.07940000
opls_142-88    C    0.26699003    0.77818003    0.02760045    0.01580000
opls_700-89    C    0.24777005    0.79135013    0.04718992    0.08670000
opls_145-90    C    0.25889002    0.82142008    0.00827053    -0.07880000
opls_145-91    C    0.24109998    0.83432994    0.02895059    -0.07880000
opls_700-92    C    0.21209011    0.81741010    0.09114050    0.08100000
opls_145-93    C    0.20053995    0.78714009    0.12353007    -0.09820000
opls_145-94    C    0.21834006    0.77426997    0.10394060    -0.07880000
opls_700-95    C    0.19271000    0.83037992    0.10532942    0.00170000
opls_624-96    C    0.19379009    0.84879007    0.23849014    0.07780000
opls_624-97    C    0.17474999    0.86015012    0.24340030    0.07800000
opls_700-98    C    0.15406993    0.85441003    0.11381957    0.00280000
opls_145-99    C    0.15237995    0.83557002    0.98346019    -0.08100000
opls_145-100    C    0.17109004    0.82341996    0.98042051    -0.08510000
opls_700-101    C    0.13398996    0.86661005    0.10784003    0.07840000
opls_145-102    C    0.14390003    0.89522011    0.04515972    -0.07880000
opls_145-103    C    0.12439014    0.90636012    0.03577989    -0.08090000
opls_700-104    C    0.09460005    0.88882013    0.08674944    0.07820000
opls_145-105    C    0.08470994    0.86000002    0.14633017    -0.07880000
opls_145-106    C    0.10423001    0.84889998    0.15587971    -0.07860000
opls_142-107    C    0.07351011    0.89998013    0.07920015    0.01580000
opls_558-108    C    0.20241006    0.87471993    0.46152982    0.23260000
opls_145-109    C    0.06366003    0.94026997    0.02071001    0.22060000
opls_145-110    C    0.07353993    0.96603997    0.92565011    -0.14130000
opls_145-111    C    0.05694989    0.98043992    0.91667956    -0.07880000
opls_700-112    C    0.03020006    0.96942003    0.00498003    0.07340000
opls_145-113    C    0.02049991    0.94376993    0.10250062    -0.07880000
opls_145-114    C    0.03699000    0.92928006    0.11046044    -0.14120000
opls_142-115    C    0.23579996    0.85381009    0.42898053    0.06830000
opls_142-116    C    0.16641000    0.89296999    0.44925006    0.06720000
opls_143-117    C    0.22434000    0.82411005    0.51683055    -0.30830000
opls_143-118    C    0.18523001    0.92580008    0.40499002    -0.30820000
opls_700-119    C    0.31669008    0.68254005    0.04627028    0.07080000
opls_145-120    C    0.01289997    0.98511001    0.99933991    0.04770000
opls_145-121    C    0.29999992    0.65136991    0.04565011    -0.06290000
opls_145-122    C    0.98525995    0.97253009    0.99897055    -0.12060000
opls_145-123    C    0.60690010    0.35133005    0.69117045    -0.08090000
opls_145-124    C    0.59058004    0.36600999    0.69453956    -0.14140000
opls_145-125    C    0.59735996    0.38960003    0.58514974    0.21810000
opls_145-126    C    0.62143995    0.39876992    0.47324058    -0.14100000
opls_145-127    C    0.63792006    0.38423008    0.47092962    -0.07860000
opls_700-128    C    0.63094999    0.36055012    0.57980035    0.07340000
opls_142-129    C    0.58056997    0.42353009    0.49151984    0.01580000
opls_700-130    C    0.56159009    0.43689002    0.51594959    0.07120000
opls_145-131    C    0.56449994    0.45915007    0.40601947    -0.09820000
opls_145-132    C    0.54690992    0.47225999    0.42517969    -0.09680000
opls_700-133    C    0.52608000    0.46338008    0.55354005    0.07950000
opls_145-134    C    0.52279995    0.44094996    0.66304966    -0.07880000
opls_145-135    C    0.54073999    0.42802011    0.64582980    -0.08110000
opls_700-136    C    0.50637002    0.47610011    0.56370976    0.00150000
opls_624-137    C    0.51489991    0.50443995    0.63064013    0.07790000
opls_624-138    C    0.49565999    0.51558996    0.63031944    0.07790000
opls_700-139    C    0.46704002    0.49944990    0.55835039    -0.00030000
opls_145-140    C    0.45848997    0.47134009    0.49028949    -0.08510000
opls_145-141    C    0.47782996    0.45986991    0.49292987    -0.08510000
opls_700-142    C    0.44618994    0.51072003    0.54867981    0.07900000
opls_145-143    C    0.45096997    0.53304002    0.43426004    -0.09820000
opls_145-144    C    0.43266000    0.54557998    0.43501997    -0.07880000
opls_700-145    C    0.40894007    0.53546999    0.54843025    0.07460000
opls_145-146    C    0.40330010    0.51200007    0.65670951    -0.07880000
opls_145-147    C    0.42178998    0.49964996    0.65664961    -0.09820000
opls_142-148    C    0.39058006    0.54971008    0.56039057    0.01580000
opls_558-149    C    0.53575990    0.54645991    0.75709009    0.23280000
opls_145-150    C    0.38376998    0.59184993    0.49021962    0.22340000
opls_145-151    C    0.39633005    0.61841992    0.40039057    -0.11710000
opls_145-152    C    0.38363011    0.63653010    0.40478038    -0.07880000
opls_700-153    C    0.35793004    0.62838003    0.49958947    0.07480000
opls_145-154    C    0.34532000    0.60177007    0.59016970    -0.07860000
opls_145-155    C    0.35799996    0.58358995    0.58551036    -0.14160000
opls_142-156    C    0.56640005    0.52222996    0.75984028    0.06840000
opls_142-157    C    0.49789990    0.56206996    0.75863988    0.06720000
opls_143-158    C    0.56050006    0.50624999    0.92591964    -0.30780000
opls_143-159    C    0.51112000    0.58926010    0.64528949    -0.30820000
opls_700-160    C    0.64860998    0.34533995    0.57807961    0.07410000
opls_145-161    C    0.34413000    0.64745008    0.50228974    0.05060000
opls_145-162    C    0.63445006    0.31421999    0.57807961    -0.04200000
opls_145-163    C    0.31665009    0.63814009    0.50243948    -0.10760000
opls_145-164    C    0.30977001    0.58439994    0.13526953    -0.07860000
opls_145-165    C    0.29296999    0.55350002    0.13912029    -0.11460000
opls_145-166    C    0.26527997    0.53842996    0.06163963    0.22960000
opls_145-167    C    0.25466007    0.55485999    0.97633017    -0.14110000
opls_145-168    C    0.27170996    0.58584007    0.96973047    -0.08100000
opls_700-169    C    0.29936991    0.60108998    0.05058023    0.07960000
opls_142-170    C    0.22182002    0.48880992    0.02760045    0.01580000
opls_700-171    C    0.20864991    0.45641991    0.04718992    0.08670000
opls_145-172    C    0.17858001    0.43746998    0.00827053    -0.07880000
opls_145-173    C    0.16567003    0.40677011    0.02895059    -0.07880000
opls_700-174    C    0.18259008    0.39468001    0.09114050    0.08100000
opls_145-175    C    0.21285993    0.41339990    0.12353007    -0.09820000
opls_145-176    C    0.22573004    0.44407002    0.10394060    -0.07860000
opls_700-177    C    0.16961994    0.36232996    0.10532942    0.00170000
opls_624-178    C    0.15120994    0.34500002    0.23849014    0.07790000
opls_624-179    C    0.13985001    0.31460012    0.24340030    0.07800000
opls_700-180    C    0.14559000    0.29965995    0.11381957    0.00280000
opls_145-181    C    0.16443002    0.31681005    0.98346019    -0.08100000
opls_145-182    C    0.17657993    0.34767000    0.98042051    -0.08510000
opls_700-183    C    0.13339006    0.26738007    0.10784003    0.07840000
opls_145-184    C    0.10477993    0.24867994    0.04515972    -0.07880000
opls_145-185    C    0.09363995    0.21803003    0.03577989    -0.08090000
opls_700-186    C    0.11118000    0.20578005    0.08674944    0.07820000
opls_145-187    C    0.14000003    0.22470999    0.14633017    -0.07870000
opls_145-188    C    0.15110002    0.25532993    0.15587971    -0.07860000
opls_142-189    C    0.10002003    0.17352992    0.07920015    0.01580000
opls_558-190    C    0.12528008    0.32769005    0.46152982    0.23270000
opls_145-191    C    0.05973005    0.12339010    0.02071001    0.22050000
opls_145-192    C    0.03396001    0.10750006    0.92565011    -0.14130000
opls_145-193    C    0.01956006    0.07650999    0.91667956    -0.07880000
opls_700-194    C    0.03058000    0.06078004    0.00498003    0.07340000
opls_145-195    C    0.05623003    0.07673002    0.10250062    -0.07880000
opls_145-196    C    0.07071997    0.10771010    0.11046044    -0.14120000
opls_142-197    C    0.14619006    0.38198996    0.42898053    0.06830000
opls_142-198    C    0.10703003    0.27344011    0.44925006    0.06720000
opls_143-199    C    0.17589004    0.40023003    0.51683055    -0.30830000
opls_143-200    C    0.07419998    0.25943005    0.40499002    -0.30820000
opls_700-201    C    0.31746001    0.63415009    0.04627028    0.07080000
opls_145-202    C    0.01488995    0.02779008    0.99933991    0.04770000
opls_145-203    C    0.34862996    0.64862998    0.04565011    -0.06290000
opls_145-204    C    0.02747009    0.01273002    0.99897055    -0.12060000
opls_145-205    C    0.64866989    0.25556995    0.69117045    -0.08090000
opls_145-206    C    0.63399008    0.22457011    0.69453956    -0.14140000
opls_145-207    C    0.61039993    0.20775995    0.58514974    0.21800000
opls_145-208    C    0.60122997    0.22266992    0.47324058    -0.14090000
opls_145-209    C    0.61576990    0.25368997    0.47092962    -0.07860000
opls_700-210    C    0.63944997    0.27039999    0.57980035    0.07340000
opls_142-211    C    0.57646998    0.15703994    0.49151984    0.01580000
opls_700-212    C    0.56310998    0.12470011    0.51594959    0.07130000
opls_145-213    C    0.54085002    0.10535008    0.40601947    -0.09820000
opls_145-214    C    0.52773995    0.07464999    0.42517969    -0.09680000
opls_700-215    C    0.53662006    0.06269999    0.55354005    0.07950000
opls_145-216    C    0.55904997    0.08184996    0.66304966    -0.07880000
opls_145-217    C    0.57197999    0.11271991    0.64582980    -0.08090000
opls_700-218    C    0.52389993    0.03027001    0.56370976    0.00150000
opls_624-219    C    0.49555993    0.01045992    0.63064013    0.07790000
opls_624-220    C    0.48440997    0.98007001    0.63031944    0.07790000
opls_700-221    C    0.50054993    0.96759001    0.55835039    -0.00030000
opls_145-222    C    0.52866013    0.98715008    0.49028949    -0.08500000
opls_145-223    C    0.54013012    0.01796008    0.49292987    -0.08500000
opls_700-224    C    0.48928004    0.93546999    0.54867981    0.07900000
opls_145-225    C    0.46696000    0.91793000    0.43426004    -0.09820000
opls_145-226    C    0.45441993    0.88708003    0.43501997    -0.07880000
opls_700-227    C    0.46453006    0.87347009    0.54843025    0.07460000
opls_145-228    C    0.48799999    0.89130006    0.65670951    -0.07880000
opls_145-229    C    0.50035009    0.92214003    0.65664961    -0.09820000
opls_142-230    C    0.45029003    0.84087003    0.56039057    0.01580000
opls_558-231    C    0.45353995    0.98930006    0.75709009    0.23260000
opls_145-232    C    0.40815003    0.79192009    0.49021962    0.22370000
opls_145-233    C    0.38157996    0.77791004    0.40039057    -0.11710000
opls_145-234    C    0.36347003    0.74710004    0.40478038    -0.07880000
opls_700-235    C    0.37161995    0.72955005    0.49958947    0.07480000
opls_145-236    C    0.39823002    0.74355012    0.59016970    -0.07860000
opls_145-237    C    0.41641011    0.77441008    0.58551036    -0.14160000
opls_142-238    C    0.47777000    0.04416993    0.75984028    0.06830000
opls_142-239    C    0.43793007    0.93583013    0.75863988    0.06720000
opls_143-240    C    0.49374991    0.05424994    0.92591964    -0.30780000
opls_143-241    C    0.41074004    0.92186004    0.64528949    -0.30810000
opls_700-242    C    0.65466011    0.30327004    0.57807961    0.07410000
opls_145-243    C    0.35254998    0.69668000    0.50228974    0.05060000
opls_145-244    C    0.68578007    0.32023007    0.57807961    -0.04200000
opls_145-245    C    0.36185999    0.67851009    0.50243948    -0.10760000
opls_750-246    N    0.49341001    0.74259003    0.07144996    -0.29810000
opls_557-247    N    0.64679002    0.78870012    0.37690042    -0.01760000
opls_557-248    N    0.69625999    0.81987004    0.38488021    -0.01830000
opls_750-249    N    0.84481006    0.91811007    0.02736960    -0.28820000
opls_750-250    N    0.82410997    0.42026993    0.59457949    -0.28820000
opls_557-251    N    0.98386004    0.45966008    0.70973047    -0.01580000
opls_557-252    N    0.03323004    0.49108002    0.71097954    -0.01580000
opls_750-253    N    0.17621002    0.60169991    0.48278013    -0.28780000
opls_750-254    N    0.25741002    0.75082004    0.07144996    -0.29830000
opls_557-255    N    0.21130001    0.85809006    0.37690042    -0.01760000
opls_557-256    N    0.18013005    0.87639009    0.38488021    -0.01830000
opls_750-257    N    0.08188995    0.92669999    0.02736960    -0.28820000
opls_750-258    N    0.57973008    0.40384012    0.59457949    -0.28820000
opls_557-259    N    0.54034002    0.52420009    0.70973047    -0.01580000
opls_557-260    N    0.50891999    0.54214996    0.71097954    -0.01580000
opls_750-261    N    0.39830009    0.57450999    0.48278013    -0.28770000
opls_750-262    N    0.24917998    0.50658993    0.07144996    -0.29840000
opls_557-263    N    0.14191009    0.35321004    0.37690042    -0.01760000
opls_557-264    N    0.12361007    0.30374009    0.38488021    -0.01830000
opls_750-265    N    0.07330000    0.15518994    0.02736960    -0.28810000
opls_750-266    N    0.59615995    0.17588995    0.59457949    -0.28820000
opls_557-267    N    0.47580005    0.01614005    0.70973047    -0.01580000
opls_557-268    N    0.45784997    0.96677002    0.71097954    -0.01580000
opls_750-269    N    0.42549009    0.82379010    0.48278013    -0.28780000
F2_Au1f1-270    Au    0.67453995    0.77979002    0.67672947    0.23520000
F2_Au1f1-271    Au    0.01631992    0.43566993    0.89487023    0.23520000
F2_Au1f1-272    Au    0.22020995    0.89475006    0.67672947    0.23530000
F2_Au1f1-273    Au    0.56432998    0.58064997    0.89487023    0.23520000
F2_Au1f1-274    Au    0.10524991    0.32545992    0.67672947    0.23520000
F2_Au1f1-275    Au    0.41935010    0.98368010    0.89487023    0.23520000
MOF2_Cl-276    Cl    0.67687009    0.75933003    0.92048041    -0.23370000
MOF2_Cl-277    Cl    0.02265006    0.40325994    0.05161967    -0.23370000
MOF2_Cl-278    Cl    0.24067006    0.91754010    0.92048041    -0.23370000
MOF2_Cl-279    Cl    0.59674009    0.61939000    0.05161967    -0.23370000
MOF2_Cl-280    Cl    0.08245996    0.32313009    0.92048041    -0.23370000
MOF2_Cl-281    Cl    0.38061004    0.97735006    0.05161967    -0.23370000
opls_146-282    H    0.40362000    0.73579994    0.20121038    0.04800000
opls_146-283    H    0.45980995    0.76164009    0.20627028    0.04790000
opls_146-284    H    0.45706000    0.68914009    0.91219990    0.04790000
opls_146-285    H    0.40093996    0.66417009    0.89812952    0.04800000
opls_144-286    H    0.50177990    0.70971998    0.97386948    0.02830000
opls_146-287    H    0.55289996    0.71745995    0.95953956    0.04740000
opls_146-288    H    0.60852001    0.74985995    0.99527951    0.04800000
opls_146-289    H    0.59638989    0.82347991    0.16605940    0.04790000
opls_146-290    H    0.54072008    0.79095002    0.13400050    0.04790000
opls_146-291    H    0.69436994    0.86436992    0.87839032    0.04790000
opls_146-292    H    0.63904005    0.83136998    0.87476042    0.04790000
opls_146-293    H    0.74156005    0.83213001    0.00177939    0.04790000
opls_146-294    H    0.79720006    0.86744002    0.98665960    0.04790000
opls_146-295    H    0.78485011    0.93936007    0.18729973    0.04790000
opls_146-296    H    0.72949004    0.90414997    0.20297979    0.04790000
opls_144-297    H    0.83562999    0.95055004    0.11922011    0.02840000
opls_146-298    H    0.88021002    0.90463002    0.85418018    0.04790000
opls_146-299    H    0.93612996    0.93485006    0.83720988    0.04790000
opls_146-300    H    0.93559009    0.00106000    0.17638008    0.04790000
opls_146-301    H    0.87964005    0.97118011    0.19000000    0.04790000
opls_144-302    H    0.61197999    0.74030994    0.40179062    0.02830000
opls_144-303    H    0.73633999    0.85539010    0.52114050    0.02830000
opls_144-304    H    0.57459988    0.76342993    0.50202021    0.11000000
opls_144-305    H    0.61128012    0.79648006    0.59744946    0.10990000
opls_144-306    H    0.72639994    0.79178998    0.34792987    0.10990000
opls_144-307    H    0.76521004    0.82368996    0.42898053    0.10990000
opls_146-308    H    0.36491001    0.72529006    0.04473047    0.04790000
opls_146-309    H    0.97576001    0.02850992    0.99828051    0.04790000
opls_146-310    H    0.73101006    0.39919001    0.77861992    0.04790000
opls_146-311    H    0.78731006    0.42847995    0.78691041    0.04790000
opls_146-312    H    0.79062002    0.37252010    0.38442975    0.04790000
opls_146-313    H    0.73442013    0.34280008    0.37996007    0.04790000
opls_144-314    H    0.83463989    0.40381992    0.37956950    0.02830000
opls_146-315    H    0.88534997    0.41866994    0.29993012    0.04790000
opls_146-316    H    0.94091002    0.45049997    0.33541053    0.04790000
opls_146-317    H    0.92761999    0.49450005    0.76673946    0.04790000
opls_146-318    H    0.87180012    0.46157004    0.73753057    0.04790000
opls_146-319    H    0.02199001    0.56443997    0.43195034    0.04790000
opls_146-320    H    0.96690000    0.52988000    0.43657974    0.04740000
opls_146-321    H    0.07118999    0.53014001    0.34000998    0.04790000
opls_146-322    H    0.12714005    0.56306002    0.34344023    0.04790000
opls_146-323    H    0.11935009    0.61646001    0.74545046    0.04790000
opls_146-324    H    0.06353000    0.58299001    0.74460943    0.04790000
opls_144-325    H    0.16959994    0.63060995    0.63820938    0.02830000
opls_146-326    H    0.20832987    0.58283991    0.32252059    0.04790000
opls_146-327    H    0.26408006    0.60590994    0.33103943    0.04790000
opls_146-328    H    0.27024995    0.67543999    0.66845021    0.04800000
opls_146-329    H    0.21442002    0.65249008    0.65905041    0.04790000
opls_144-330    H    0.94511992    0.41307995    0.67660968    0.02830000
opls_144-331    H    0.07429005    0.51825994    0.86730971    0.02830000
opls_144-332    H    0.92120005    0.42704004    0.96044048    0.10990000
opls_144-333    H    0.96272991    0.45639992    0.01621038    0.10990000
opls_144-334    H    0.06340013    0.46841010    0.56690042    0.10990000
opls_144-335    H    0.10332009    0.49947011    0.63894060    0.10990000
opls_146-336    H    0.69127007    0.39083012    0.57807961    0.04790000
opls_146-337    H    0.31306011    0.69980006    0.50272024    0.04790000
opls_146-338    H    0.26419993    0.66781992    0.20121038    0.04790000
opls_146-339    H    0.23836011    0.69818008    0.20627028    0.04740000
opls_146-340    H    0.31085989    0.76791995    0.91219990    0.04790000
opls_146-341    H    0.33583006    0.73677001    0.89812952    0.04790000
opls_144-342    H    0.29027996    0.79205998    0.97386948    0.02830000
opls_146-343    H    0.28253998    0.83544013    0.95953956    0.04740000
opls_146-344    H    0.25013994    0.85866003    0.99527951    0.04790000
opls_146-345    H    0.17651999    0.77291000    0.16605940    0.04790000
opls_146-346    H    0.20905000    0.74977003    0.13400050    0.04790000
opls_146-347    H    0.13562994    0.83000001    0.87839032    0.04790000
opls_146-348    H    0.16862994    0.80767003    0.87476042    0.04790000
opls_146-349    H    0.16787008    0.90943000    0.00177939    0.04790000
opls_146-350    H    0.13256008    0.92976010    0.98665960    0.04790000
opls_146-351    H    0.06063998    0.84548994    0.18729973    0.04790000
opls_146-352    H    0.09585003    0.82533991    0.20297979    0.04790000
opls_144-353    H    0.04944988    0.88507993    0.11922011    0.02830000
opls_146-354    H    0.09537003    0.97557999    0.85418018    0.04790000
opls_146-355    H    0.06514997    0.00128004    0.83720988    0.04790000
opls_146-356    H    0.99894009    0.93453011    0.17638008    0.04800000
opls_146-357    H    0.02881991    0.90844993    0.19000000    0.04790000
opls_144-358    H    0.25969003    0.87167004    0.40179062    0.02830000
opls_144-359    H    0.14461002    0.88094006    0.52114050    0.02830000
opls_144-360    H    0.23656990    0.81116999    0.50202021    0.10990000
opls_144-361    H    0.20352002    0.81480006    0.59744946    0.10990000
opls_144-362    H    0.20820993    0.93461004    0.34792987    0.10990000
opls_144-363    H    0.17631006    0.94152004    0.42898053    0.10990000
opls_146-364    H    0.27470989    0.63961996    0.04473047    0.04790000
opls_146-365    H    0.97149008    0.94725013    0.99828051    0.04790000
opls_146-366    H    0.60080988    0.33181993    0.77861992    0.04790000
opls_146-367    H    0.57151999    0.35883999    0.78691041    0.04790000
opls_146-368    H    0.62747995    0.41808998    0.38442975    0.04790000
opls_146-369    H    0.65720001    0.39161990    0.37996007    0.04790000
opls_144-370    H    0.59617993    0.43081000    0.37956950    0.02840000
opls_146-371    H    0.58132999    0.46668998    0.29993012    0.04790000
opls_146-372    H    0.54949993    0.49040991    0.33541053    0.04790000
opls_146-373    H    0.50549994    0.43312007    0.76673946    0.04790000
opls_146-374    H    0.53843012    0.41022012    0.73753057    0.04740000
opls_146-375    H    0.43555996    0.45755007    0.43195034    0.04790000
opls_146-376    H    0.47011999    0.43702991    0.43657974    0.04790000
opls_146-377    H    0.46986006    0.54104999    0.34000998    0.04790000
opls_146-378    H    0.43693994    0.56408005    0.34344023    0.04790000
opls_146-379    H    0.38353995    0.50288992    0.74545046    0.04790000
opls_146-380    H    0.41700990    0.48053995    0.74460943    0.04790000
opls_144-381    H    0.36938998    0.53898993    0.63820938    0.02830000
opls_146-382    H    0.41715996    0.62549001    0.32252059    0.04790000
opls_146-383    H    0.39409009    0.65817000    0.33103943    0.04790000
opls_146-384    H    0.32456003    0.59479991    0.66845021    0.04790000
opls_146-385    H    0.34750998    0.56193007    0.65905041    0.04790000
opls_144-386    H    0.58691990    0.53203997    0.67660968    0.02830000
opls_144-387    H    0.48174009    0.55603012    0.86730971    0.02830000
opls_144-388    H    0.57296007    0.49416011    0.96044048    0.10990000
opls_144-389    H    0.54359992    0.50632993    0.01621038    0.10990000
opls_144-390    H    0.53158997    0.59499996    0.56690042    0.10990000
opls_144-391    H    0.50053000    0.60385011    0.63894060    0.10990000
opls_146-392    H    0.60916989    0.30043997    0.57807961    0.04790000
opls_146-393    H    0.30020005    0.61326002    0.50272024    0.04790000
opls_146-394    H    0.33217996    0.59637992    0.20121038    0.04800000
opls_146-395    H    0.30182005    0.54019004    0.20627028    0.04790000
opls_146-396    H    0.23207992    0.54293996    0.91219990    0.04790000
opls_146-397    H    0.26323009    0.59906012    0.89812952    0.04790000
opls_144-398    H    0.20793994    0.49822004    0.97386948    0.02830000
opls_146-399    H    0.16456006    0.44709993    0.95953956    0.04740000
opls_146-400    H    0.14134005    0.39148002    0.99527951    0.04790000
opls_146-401    H    0.22709011    0.40361009    0.16605940    0.04790000
opls_146-402    H    0.25022992    0.45927996    0.13400050    0.04790000
opls_146-403    H    0.17000011    0.30563007    0.87839032    0.04790000
opls_146-404    H    0.19233001    0.36096000    0.87476042    0.04790000
opls_146-405    H    0.09057006    0.25843999    0.00177939    0.04790000
opls_146-406    H    0.07023997    0.20280010    0.98665960    0.04790000
opls_146-407    H    0.15450991    0.21514999    0.18729973    0.04790000
opls_146-408    H    0.17466012    0.27051012    0.20297979    0.04790000
opls_144-409    H    0.11491995    0.16437003    0.11922011    0.02830000
opls_146-410    H    0.02441995    0.11979000    0.85418018    0.04800000
opls_146-411    H    0.99871987    0.06386990    0.83720988    0.04800000
opls_146-412    H    0.06547013    0.06441011    0.17638008    0.04790000
opls_146-413    H    0.09155004    0.12035997    0.19000000    0.04790000
opls_144-414    H    0.12832998    0.38802002    0.40179062    0.02830000
opls_144-415    H    0.11906011    0.26366007    0.52114050    0.02830000
opls_144-416    H    0.18883003    0.42540008    0.50202021    0.10990000
opls_144-417    H    0.18519997    0.38872010    0.59744946    0.10990000
opls_144-418    H    0.06538993    0.27359998    0.34792987    0.10990000
opls_144-419    H    0.05848009    0.23479000    0.42898053    0.10990000
opls_146-420    H    0.36037991    0.63508997    0.04473047    0.04790000
opls_146-421    H    0.05274991    0.02423994    0.99828051    0.04790000
opls_146-422    H    0.66818006    0.26899006    0.77861992    0.04790000
opls_146-423    H    0.64115995    0.21269005    0.78691041    0.04800000
opls_146-424    H    0.58191004    0.20937993    0.38442975    0.04790000
opls_146-425    H    0.60838005    0.26558002    0.37996007    0.04790000
opls_144-426    H    0.56919000    0.16536009    0.37956950    0.02830000
opls_146-427    H    0.53331004    0.11465008    0.29993012    0.04740000
opls_146-428    H    0.50958994    0.05908989    0.33541053    0.04790000
opls_146-429    H    0.56687999    0.07238011    0.76673946    0.04790000
opls_146-430    H    0.58978007    0.12820007    0.73753057    0.04790000
opls_146-431    H    0.54245003    0.97800995    0.43195034    0.04790000
opls_146-432    H    0.56297000    0.03310008    0.43657974    0.04790000
opls_146-433    H    0.45894995    0.92881001    0.34000998    0.04790000
opls_146-434    H    0.43592001    0.87285993    0.34344023    0.04790000
opls_146-435    H    0.49710996    0.88065008    0.74545046    0.04790000
opls_146-436    H    0.51946010    0.93647004    0.74460943    0.04800000
opls_144-437    H    0.46101008    0.83040012    0.63820938    0.02830000
opls_146-438    H    0.37450998    0.79167008    0.32252059    0.04790000
opls_146-439    H    0.34183004    0.73592006    0.33103943    0.04790000
opls_146-440    H    0.40520002    0.72975011    0.66845021    0.04740000
opls_146-441    H    0.43807010    0.78558006    0.65905041    0.04790000
opls_144-442    H    0.46795999    0.05488008    0.67660968    0.02830000
opls_144-443    H    0.44397005    0.92570993    0.86730971    0.02830000
opls_144-444    H    0.50583999    0.07880007    0.96044048    0.11000000
opls_144-445    H    0.49367006    0.03726993    0.01621038    0.10990000
opls_144-446    H    0.40499990    0.93659993    0.56690042    0.10930000
opls_144-447    H    0.39615002    0.89668000    0.63894060    0.10990000
opls_146-448    H    0.69956004    0.30872992    0.57807961    0.04790000
opls_146-449    H    0.38674003    0.68693993    0.50272024    0.04790000
