#======================================================================
# Crystal Data Generated By AuToFF
#----------------------------------------------------------------------

data_AuToFF_phase_1

_cell_length_a                         32.9466
_cell_length_b                         57.0651
_cell_length_c                         6.2388
_cell_angle_alpha                      90.00
_cell_angle_beta                       90.00
_cell_angle_gamma                      90.00
_symmetry_space_group_name_H-M_alt     'P 1'
_symmetry_space_group_IT_number        1

loop_
_space_group_symop_operation_xyz
   'x, y, z'

loop_
   _atom_site_label
   _atom_site_type_symbol
   _atom_site_fract_x
   _atom_site_fract_y
   _atom_site_fract_z
   _atom_site_charge
opls_916-0    C    0.45857994    0.76380993    0.75000000    0.18780000
opls_145-1    C    0.37881997    0.79040009    0.75000000    0.16090000
opls_145-2    C    0.12106014    0.87632003    0.75000000    0.16520000
opls_916-3    C    0.04139001    0.90288004    0.75000000    0.18700000
opls_145-4    C    0.45304007    0.78894000    0.75000000    -0.19050000
opls_145-5    C    0.41619014    0.80150004    0.75000000    -0.16870000
opls_234-6    C    0.30121985    0.79415001    0.75000000    0.42940000
opls_700-7    C    0.27068013    0.81253008    0.75000000    -0.06270000
opls_145-8    C    0.27169996    0.85515000    0.75000000    -0.17000000
opls_700-9    C    0.22914990    0.85422000    0.75000000    -0.06270000
opls_234-10    C    0.19861989    0.87259008    0.75000000    0.42960000
opls_145-11    C    0.11905993    0.90054008    0.75000000    -0.17880000
opls_145-12    C    0.08180996    0.91265993    0.75000000    -0.17240000
opls_145-13    C    0.46508987    0.70706001    0.75000000    -0.19020000
opls_145-14    C    0.46467010    0.68235997    0.75000000    -0.16870000
opls_234-15    C    0.53317004    0.62855002    0.75000000    0.42940000
opls_700-16    C    0.52088015    0.60409007    0.75000000    -0.06500000
opls_145-17    C    0.45644012    0.58327997    0.75000000    -0.17550000
opls_700-18    C    0.47911014    0.56248004    0.75000000    -0.06240000
opls_234-19    C    0.46681995    0.53803007    0.75000000    0.42940000
opls_145-20    C    0.46467010    0.48427007    0.75000000    -0.17930000
opls_145-21    C    0.46511992    0.45959001    0.75000000    -0.17240000
opls_145-22    C    0.58188007    0.75403005    0.75000000    -0.19020000
opls_145-23    C    0.61914006    0.76617004    0.75000000    -0.17300000
opls_234-24    C    0.66560009    0.82733001    0.75000000    0.42940000
opls_700-25    C    0.70844002    0.83340991    0.75000000    -0.06270000
opls_145-26    C    0.77186993    0.81158992    0.75000000    -0.17550000
opls_700-27    C    0.79173997    0.83333000    0.75000000    -0.06270000
opls_234-28    C    0.83455986    0.83941008    0.75000000    0.42960000
opls_145-29    C    0.91626996    0.86521008    0.75000000    -0.17880000
opls_145-30    C    0.95307012    0.87777994    0.75000000    -0.18060000
opls_916-31    C    0.95857994    0.26380993    0.75000000    0.18780000
opls_145-32    C    0.87881997    0.29040009    0.75000000    0.16090000
opls_145-33    C    0.62106014    0.37632003    0.75000000    0.16520000
opls_916-34    C    0.54139001    0.40288004    0.75000000    0.18700000
opls_145-35    C    0.95304007    0.28894000    0.75000000    -0.19050000
opls_145-36    C    0.91619014    0.30150004    0.75000000    -0.16870000
opls_234-37    C    0.80121985    0.29415001    0.75000000    0.42940000
opls_700-38    C    0.77068013    0.31253008    0.75000000    -0.06270000
opls_145-39    C    0.77169996    0.35515000    0.75000000    -0.17000000
opls_700-40    C    0.72914990    0.35422000    0.75000000    -0.06270000
opls_234-41    C    0.69861989    0.37259008    0.75000000    0.42960000
opls_145-42    C    0.61905993    0.40054008    0.75000000    -0.17880000
opls_145-43    C    0.58180996    0.41265993    0.75000000    -0.17240000
opls_145-44    C    0.96508987    0.20706001    0.75000000    -0.19020000
opls_145-45    C    0.96467010    0.18235997    0.75000000    -0.16870000
opls_234-46    C    0.03317004    0.12855002    0.75000000    0.42940000
opls_700-47    C    0.02088015    0.10409007    0.75000000    -0.06500000
opls_145-48    C    0.95644012    0.08327997    0.75000000    -0.17550000
opls_700-49    C    0.97911014    0.06248004    0.75000000    -0.06240000
opls_234-50    C    0.96681995    0.03803007    0.75000000    0.42940000
opls_145-51    C    0.96467010    0.98427007    0.75000000    -0.17930000
opls_145-52    C    0.96511992    0.95959001    0.75000000    -0.17240000
opls_145-53    C    0.08188007    0.25403005    0.75000000    -0.19020000
opls_145-54    C    0.11914006    0.26617004    0.75000000    -0.17300000
opls_234-55    C    0.16560009    0.32733001    0.75000000    0.42940000
opls_700-56    C    0.20844002    0.33340991    0.75000000    -0.06270000
opls_145-57    C    0.27186993    0.31158992    0.75000000    -0.17550000
opls_700-58    C    0.29173997    0.33333000    0.75000000    -0.06270000
opls_234-59    C    0.33455986    0.33941008    0.75000000    0.42960000
opls_145-60    C    0.41626996    0.36521008    0.75000000    -0.17880000
opls_145-61    C    0.45307012    0.37777994    0.75000000    -0.18060000
opls_916-62    C    0.54142006    0.23619007    0.25000000    0.18780000
opls_145-63    C    0.62118003    0.20959991    0.25000000    0.16090000
opls_145-64    C    0.87893986    0.12367997    0.25000000    0.16520000
opls_916-65    C    0.95860999    0.09711996    0.25000000    0.18700000
opls_145-66    C    0.54695993    0.21106000    0.25000000    -0.19050000
opls_145-67    C    0.58380986    0.19849996    0.25000000    -0.16870000
opls_234-68    C    0.69878015    0.20584999    0.25000000    0.42940000
opls_700-69    C    0.72931987    0.18746992    0.25000000    -0.06270000
opls_145-70    C    0.72830004    0.14485000    0.25000000    -0.17000000
opls_700-71    C    0.77085010    0.14578000    0.25000000    -0.06270000
opls_234-72    C    0.80138011    0.12740992    0.25000000    0.42960000
opls_145-73    C    0.88094007    0.09945992    0.25000000    -0.17880000
opls_145-74    C    0.91819004    0.08734007    0.25000000    -0.17240000
opls_145-75    C    0.53491013    0.29293999    0.25000000    -0.19020000
opls_145-76    C    0.53532990    0.31764003    0.25000000    -0.16870000
opls_234-77    C    0.46682996    0.37144998    0.25000000    0.42940000
opls_700-78    C    0.47911985    0.39590993    0.25000000    -0.06500000
opls_145-79    C    0.54355988    0.41672003    0.25000000    -0.17550000
opls_700-80    C    0.52088986    0.43751996    0.25000000    -0.06240000
opls_234-81    C    0.53318005    0.46196993    0.25000000    0.42940000
opls_145-82    C    0.53532990    0.51572993    0.25000000    -0.17930000
opls_145-83    C    0.53488008    0.54040999    0.25000000    -0.17240000
opls_145-84    C    0.41811993    0.24596995    0.25000000    -0.19020000
opls_145-85    C    0.38085994    0.23382996    0.25000000    -0.17300000
opls_234-86    C    0.33439991    0.17266999    0.25000000    0.42940000
opls_700-87    C    0.29155998    0.16659009    0.25000000    -0.06270000
opls_145-88    C    0.22813007    0.18841008    0.25000000    -0.17550000
opls_700-89    C    0.20826003    0.16667000    0.25000000    -0.06270000
opls_234-90    C    0.16544014    0.16058992    0.25000000    0.42960000
opls_145-91    C    0.08373004    0.13478992    0.25000000    -0.17880000
opls_145-92    C    0.04692988    0.12222006    0.25000000    -0.18060000
opls_916-93    C    0.04142006    0.73619007    0.25000000    0.18780000
opls_145-94    C    0.12118003    0.70959991    0.25000000    0.16090000
opls_145-95    C    0.37893986    0.62367997    0.25000000    0.16520000
opls_916-96    C    0.45860999    0.59711996    0.25000000    0.18700000
opls_145-97    C    0.04695993    0.71106000    0.25000000    -0.19050000
opls_145-98    C    0.08380986    0.69849996    0.25000000    -0.16870000
opls_234-99    C    0.19878015    0.70584999    0.25000000    0.42940000
opls_700-100    C    0.22931987    0.68746992    0.25000000    -0.06270000
opls_145-101    C    0.22830004    0.64485000    0.25000000    -0.17000000
opls_700-102    C    0.27085010    0.64578000    0.25000000    -0.06270000
opls_234-103    C    0.30138011    0.62740992    0.25000000    0.42960000
opls_145-104    C    0.38094007    0.59945992    0.25000000    -0.17880000
opls_145-105    C    0.41819004    0.58734007    0.25000000    -0.17240000
opls_145-106    C    0.03491013    0.79293999    0.25000000    -0.19020000
opls_145-107    C    0.03532990    0.81764003    0.25000000    -0.16870000
opls_234-108    C    0.96682996    0.87144998    0.25000000    0.42940000
opls_700-109    C    0.97911985    0.89590993    0.25000000    -0.06500000
opls_145-110    C    0.04355988    0.91672003    0.25000000    -0.17550000
opls_700-111    C    0.02088986    0.93751996    0.25000000    -0.06240000
opls_234-112    C    0.03318005    0.96196993    0.25000000    0.42940000
opls_145-113    C    0.03532990    0.01572993    0.25000000    -0.17930000
opls_145-114    C    0.03488008    0.04040999    0.25000000    -0.17240000
opls_145-115    C    0.91811993    0.74596995    0.25000000    -0.19020000
opls_145-116    C    0.88085994    0.73382996    0.25000000    -0.17300000
opls_234-117    C    0.83439991    0.67266999    0.25000000    0.42940000
opls_700-118    C    0.79155998    0.66659009    0.25000000    -0.06270000
opls_145-119    C    0.72813007    0.68841008    0.25000000    -0.17550000
opls_700-120    C    0.70826003    0.66667000    0.25000000    -0.06270000
opls_234-121    C    0.66544014    0.66058992    0.25000000    0.42960000
opls_145-122    C    0.58373004    0.63478992    0.25000000    -0.17880000
opls_145-123    C    0.54692988    0.62222006    0.25000000    -0.18060000
opls_916-124    C    0.54142006    0.76380993    0.75000000    0.18780000
opls_145-125    C    0.62118003    0.79040009    0.75000000    0.16090000
opls_145-126    C    0.87893986    0.87632003    0.75000000    0.16520000
opls_916-127    C    0.95860999    0.90288004    0.75000000    0.18700000
opls_145-128    C    0.54695993    0.78894000    0.75000000    -0.19050000
opls_145-129    C    0.58380986    0.80150004    0.75000000    -0.16870000
opls_234-130    C    0.69878015    0.79415001    0.75000000    0.42940000
opls_700-131    C    0.72931987    0.81253008    0.75000000    -0.06270000
opls_145-132    C    0.72830004    0.85515000    0.75000000    -0.17000000
opls_700-133    C    0.77085010    0.85422000    0.75000000    -0.06270000
opls_234-134    C    0.80138011    0.87259008    0.75000000    0.42960000
opls_145-135    C    0.88094007    0.90054008    0.75000000    -0.17880000
opls_145-136    C    0.91819004    0.91265993    0.75000000    -0.17240000
opls_145-137    C    0.53491013    0.70706001    0.75000000    -0.19020000
opls_145-138    C    0.53532990    0.68235997    0.75000000    -0.16870000
opls_234-139    C    0.46682996    0.62855002    0.75000000    0.42940000
opls_700-140    C    0.47911985    0.60409007    0.75000000    -0.06500000
opls_145-141    C    0.54355988    0.58327997    0.75000000    -0.17550000
opls_700-142    C    0.52088986    0.56248004    0.75000000    -0.06240000
opls_234-143    C    0.53318005    0.53803007    0.75000000    0.42940000
opls_145-144    C    0.53532990    0.48427007    0.75000000    -0.17930000
opls_145-145    C    0.53488008    0.45959001    0.75000000    -0.17240000
opls_145-146    C    0.41811993    0.75403005    0.75000000    -0.19020000
opls_145-147    C    0.38085994    0.76617004    0.75000000    -0.17300000
opls_234-148    C    0.33439991    0.82733001    0.75000000    0.42940000
opls_700-149    C    0.29155998    0.83340991    0.75000000    -0.06270000
opls_145-150    C    0.22813007    0.81158992    0.75000000    -0.17550000
opls_700-151    C    0.20826003    0.83333000    0.75000000    -0.06270000
opls_234-152    C    0.16544014    0.83941008    0.75000000    0.42960000
opls_145-153    C    0.08373004    0.86521008    0.75000000    -0.17880000
opls_145-154    C    0.04692988    0.87777994    0.75000000    -0.18060000
opls_916-155    C    0.04142006    0.26380993    0.75000000    0.18780000
opls_145-156    C    0.12118003    0.29040009    0.75000000    0.16090000
opls_145-157    C    0.37893986    0.37632003    0.75000000    0.16520000
opls_916-158    C    0.45860999    0.40288004    0.75000000    0.18700000
opls_145-159    C    0.04695993    0.28894000    0.75000000    -0.19050000
opls_145-160    C    0.08380986    0.30150004    0.75000000    -0.16870000
opls_234-161    C    0.19878015    0.29415001    0.75000000    0.42940000
opls_700-162    C    0.22931987    0.31253008    0.75000000    -0.06270000
opls_145-163    C    0.22830004    0.35515000    0.75000000    -0.17000000
opls_700-164    C    0.27085010    0.35422000    0.75000000    -0.06270000
opls_234-165    C    0.30138011    0.37259008    0.75000000    0.42960000
opls_145-166    C    0.38094007    0.40054008    0.75000000    -0.17880000
opls_145-167    C    0.41819004    0.41265993    0.75000000    -0.17240000
opls_145-168    C    0.03491013    0.20706001    0.75000000    -0.19020000
opls_145-169    C    0.03532990    0.18235997    0.75000000    -0.16870000
opls_234-170    C    0.96682996    0.12855002    0.75000000    0.42940000
opls_700-171    C    0.97911985    0.10409007    0.75000000    -0.06500000
opls_145-172    C    0.04355988    0.08327997    0.75000000    -0.17550000
opls_700-173    C    0.02088986    0.06248004    0.75000000    -0.06240000
opls_234-174    C    0.03318005    0.03803007    0.75000000    0.42940000
opls_145-175    C    0.03532990    0.98427007    0.75000000    -0.17930000
opls_145-176    C    0.03488008    0.95959001    0.75000000    -0.17240000
opls_145-177    C    0.91811993    0.25403005    0.75000000    -0.19020000
opls_145-178    C    0.88085994    0.26617004    0.75000000    -0.17300000
opls_234-179    C    0.83439991    0.32733001    0.75000000    0.42940000
opls_700-180    C    0.79155998    0.33340991    0.75000000    -0.06270000
opls_145-181    C    0.72813007    0.31158992    0.75000000    -0.17550000
opls_700-182    C    0.70826003    0.33333000    0.75000000    -0.06270000
opls_234-183    C    0.66544014    0.33941008    0.75000000    0.42960000
opls_145-184    C    0.58373004    0.36521008    0.75000000    -0.17880000
opls_145-185    C    0.54692988    0.37777994    0.75000000    -0.18060000
opls_916-186    C    0.45857994    0.23619007    0.25000000    0.18780000
opls_145-187    C    0.37881997    0.20959991    0.25000000    0.16090000
opls_145-188    C    0.12106014    0.12367997    0.25000000    0.16520000
opls_916-189    C    0.04139001    0.09711996    0.25000000    0.18700000
opls_145-190    C    0.45304007    0.21106000    0.25000000    -0.19050000
opls_145-191    C    0.41619014    0.19849996    0.25000000    -0.16870000
opls_234-192    C    0.30121985    0.20584999    0.25000000    0.42940000
opls_700-193    C    0.27068013    0.18746992    0.25000000    -0.06270000
opls_145-194    C    0.27169996    0.14485000    0.25000000    -0.17000000
opls_700-195    C    0.22914990    0.14578000    0.25000000    -0.06270000
opls_234-196    C    0.19861989    0.12740992    0.25000000    0.42960000
opls_145-197    C    0.11905993    0.09945992    0.25000000    -0.17880000
opls_145-198    C    0.08180996    0.08734007    0.25000000    -0.17240000
opls_145-199    C    0.46508987    0.29293999    0.25000000    -0.19020000
opls_145-200    C    0.46467010    0.31764003    0.25000000    -0.16870000
opls_234-201    C    0.53317004    0.37144998    0.25000000    0.42940000
opls_700-202    C    0.52088015    0.39590993    0.25000000    -0.06500000
opls_145-203    C    0.45644012    0.41672003    0.25000000    -0.17550000
opls_700-204    C    0.47911014    0.43751996    0.25000000    -0.06240000
opls_234-205    C    0.46681995    0.46196993    0.25000000    0.42940000
opls_145-206    C    0.46467010    0.51572993    0.25000000    -0.17930000
opls_145-207    C    0.46511992    0.54040999    0.25000000    -0.17240000
opls_145-208    C    0.58188007    0.24596995    0.25000000    -0.19020000
opls_145-209    C    0.61914006    0.23382996    0.25000000    -0.17300000
opls_234-210    C    0.66560009    0.17266999    0.25000000    0.42940000
opls_700-211    C    0.70844002    0.16659009    0.25000000    -0.06270000
opls_145-212    C    0.77186993    0.18841008    0.25000000    -0.17550000
opls_700-213    C    0.79173997    0.16667000    0.25000000    -0.06270000
opls_234-214    C    0.83455986    0.16058992    0.25000000    0.42960000
opls_145-215    C    0.91626996    0.13478992    0.25000000    -0.17880000
opls_145-216    C    0.95307012    0.12222006    0.25000000    -0.18060000
opls_916-217    C    0.95857994    0.73619007    0.25000000    0.18780000
opls_145-218    C    0.87881997    0.70959991    0.25000000    0.16090000
opls_145-219    C    0.62106014    0.62367997    0.25000000    0.16520000
opls_916-220    C    0.54139001    0.59711996    0.25000000    0.18700000
opls_145-221    C    0.95304007    0.71106000    0.25000000    -0.19050000
opls_145-222    C    0.91619014    0.69849996    0.25000000    -0.16870000
opls_234-223    C    0.80121985    0.70584999    0.25000000    0.42940000
opls_700-224    C    0.77068013    0.68746992    0.25000000    -0.06270000
opls_145-225    C    0.77169996    0.64485000    0.25000000    -0.17000000
opls_700-226    C    0.72914990    0.64578000    0.25000000    -0.06270000
opls_234-227    C    0.69861989    0.62740992    0.25000000    0.42960000
opls_145-228    C    0.61905993    0.59945992    0.25000000    -0.17880000
opls_145-229    C    0.58180996    0.58734007    0.25000000    -0.17240000
opls_145-230    C    0.96508987    0.79293999    0.25000000    -0.19020000
opls_145-231    C    0.96467010    0.81764003    0.25000000    -0.16870000
opls_234-232    C    0.03317004    0.87144998    0.25000000    0.42940000
opls_700-233    C    0.02088015    0.89590993    0.25000000    -0.06500000
opls_145-234    C    0.95644012    0.91672003    0.25000000    -0.17550000
opls_700-235    C    0.97911014    0.93751996    0.25000000    -0.06240000
opls_234-236    C    0.96681995    0.96196993    0.25000000    0.42940000
opls_145-237    C    0.96467010    0.01572993    0.25000000    -0.17930000
opls_145-238    C    0.96511992    0.04040999    0.25000000    -0.17240000
opls_145-239    C    0.08188007    0.74596995    0.25000000    -0.19020000
opls_145-240    C    0.11914006    0.73382996    0.25000000    -0.17300000
opls_234-241    C    0.16560009    0.67266999    0.25000000    0.42940000
opls_700-242    C    0.20844002    0.66659009    0.25000000    -0.06270000
opls_145-243    C    0.27186993    0.68841008    0.25000000    -0.17550000
opls_700-244    C    0.29173997    0.66667000    0.25000000    -0.06270000
opls_234-245    C    0.33455986    0.66058992    0.25000000    0.42960000
opls_145-246    C    0.41626996    0.63478992    0.25000000    -0.17880000
opls_145-247    C    0.45307012    0.62222006    0.25000000    -0.18060000
opls_916-248    C    0.50000000    0.72240003    0.75000000    0.18780000
opls_145-249    C    0.50000000    0.66922007    0.75000000    0.16090000
opls_145-250    C    0.50000000    0.49738001    0.75000000    0.16520000
opls_916-251    C    0.50000000    0.44426997    0.75000000    0.18660000
opls_916-252    C    0.00000000    0.22240003    0.75000000    0.18780000
opls_145-253    C    0.00000000    0.16922007    0.75000000    0.16090000
opls_145-254    C    0.00000000    0.99738001    0.75000000    0.16520000
opls_916-255    C    0.00000000    0.94426997    0.75000000    0.18660000
opls_916-256    C    0.50000000    0.27759997    0.25000000    0.18780000
opls_145-257    C    0.50000000    0.33077993    0.25000000    0.16090000
opls_145-258    C    0.50000000    0.50261999    0.25000000    0.16520000
opls_916-259    C    0.50000000    0.55573003    0.25000000    0.18660000
opls_916-260    C    0.00000000    0.77759997    0.25000000    0.18780000
opls_145-261    C    0.00000000    0.83077993    0.25000000    0.16090000
opls_145-262    C    0.00000000    0.00261999    0.25000000    0.16530000
opls_916-263    C    0.00000000    0.05573003    0.25000000    0.18660000
opls_236-264    O    0.29283993    0.77339004    0.75000000    -0.38750000
opls_236-265    O    0.20700012    0.89335005    0.75000000    -0.38760000
opls_236-266    O    0.56849994    0.63473997    0.75000000    -0.38760000
opls_236-267    O    0.43149005    0.53182996    0.75000000    -0.38920000
opls_236-268    O    0.63866013    0.84190004    0.75000000    -0.38250000
opls_236-269    O    0.86151985    0.82484005    0.75000000    -0.38920000
opls_236-270    O    0.79283993    0.27339004    0.75000000    -0.38760000
opls_236-271    O    0.70700012    0.39335005    0.75000000    -0.38760000
opls_236-272    O    0.06849994    0.13473997    0.75000000    -0.38760000
opls_236-273    O    0.93149005    0.03182996    0.75000000    -0.38920000
opls_236-274    O    0.13866013    0.34190004    0.75000000    -0.38250000
opls_236-275    O    0.36151985    0.32484005    0.75000000    -0.38920000
opls_236-276    O    0.70716007    0.22660996    0.25000000    -0.38760000
opls_236-277    O    0.79299988    0.10664995    0.25000000    -0.38750000
opls_236-278    O    0.43150006    0.36526003    0.25000000    -0.38760000
opls_236-279    O    0.56850995    0.46817004    0.25000000    -0.38920000
opls_236-280    O    0.36133987    0.15809996    0.25000000    -0.38250000
opls_236-281    O    0.13848015    0.17515995    0.25000000    -0.38920000
opls_236-282    O    0.20716007    0.72660996    0.25000000    -0.38760000
opls_236-283    O    0.29299988    0.60664995    0.25000000    -0.38760000
opls_236-284    O    0.93150006    0.86526003    0.25000000    -0.38760000
opls_236-285    O    0.06850995    0.96817004    0.25000000    -0.38920000
opls_236-286    O    0.86133987    0.65809996    0.25000000    -0.38250000
opls_236-287    O    0.63848015    0.67515995    0.25000000    -0.38920000
opls_236-288    O    0.70716007    0.77339004    0.75000000    -0.38760000
opls_236-289    O    0.79299988    0.89335005    0.75000000    -0.38760000
opls_236-290    O    0.43150006    0.63473997    0.75000000    -0.38760000
opls_236-291    O    0.56850995    0.53182996    0.75000000    -0.38920000
opls_236-292    O    0.36133987    0.84190004    0.75000000    -0.38250000
opls_236-293    O    0.13848015    0.82484005    0.75000000    -0.38920000
opls_236-294    O    0.20716007    0.27339004    0.75000000    -0.38760000
opls_236-295    O    0.29299988    0.39335005    0.75000000    -0.38760000
opls_236-296    O    0.93150006    0.13473997    0.75000000    -0.38760000
opls_236-297    O    0.06850995    0.03182996    0.75000000    -0.38920000
opls_236-298    O    0.86133987    0.34190004    0.75000000    -0.38250000
opls_236-299    O    0.63848015    0.32484005    0.75000000    -0.38920000
opls_236-300    O    0.29283993    0.22660996    0.25000000    -0.38760000
opls_236-301    O    0.20700012    0.10664995    0.25000000    -0.38760000
opls_236-302    O    0.56849994    0.36526003    0.25000000    -0.38760000
opls_236-303    O    0.43149005    0.46817004    0.25000000    -0.38920000
opls_236-304    O    0.63866013    0.15809996    0.25000000    -0.38250000
opls_236-305    O    0.86151985    0.17515995    0.25000000    -0.38920000
opls_236-306    O    0.79283993    0.72660996    0.25000000    -0.38750000
opls_236-307    O    0.70700012    0.60664995    0.25000000    -0.38760000
opls_236-308    O    0.06849994    0.86526003    0.25000000    -0.38760000
opls_236-309    O    0.93149005    0.96817004    0.25000000    -0.38920000
opls_236-310    O    0.13866013    0.65809996    0.25000000    -0.38250000
opls_236-311    O    0.36151985    0.67515995    0.25000000    -0.38920000
opls_542-312    N    0.34016014    0.80328993    0.75000000    -0.19970000
opls_542-313    N    0.15969994    0.86344000    0.75000000    -0.20080000
opls_542-314    N    0.84016014    0.30328993    0.75000000    -0.19970000
opls_542-315    N    0.65969994    0.36344000    0.75000000    -0.20080000
opls_542-316    N    0.65983986    0.19671007    0.25000000    -0.19970000
opls_542-317    N    0.84030006    0.13656000    0.25000000    -0.20080000
opls_542-318    N    0.15983986    0.69671007    0.25000000    -0.19970000
opls_542-319    N    0.34030006    0.63656000    0.25000000    -0.20080000
opls_542-320    N    0.65983986    0.80328993    0.75000000    -0.19970000
opls_542-321    N    0.84030006    0.86344000    0.75000000    -0.20080000
opls_542-322    N    0.15983986    0.30328993    0.75000000    -0.19970000
opls_542-323    N    0.34030006    0.36344000    0.75000000    -0.20080000
opls_542-324    N    0.34016014    0.19671007    0.25000000    -0.19970000
opls_542-325    N    0.15969994    0.13656000    0.25000000    -0.20080000
opls_542-326    N    0.84016014    0.69671007    0.25000000    -0.19970000
opls_542-327    N    0.65969994    0.63656000    0.25000000    -0.20080000
opls_542-328    N    0.50000000    0.64345002    0.75000000    -0.20050000
opls_542-329    N    0.50000000    0.52314006    0.75000000    -0.20050000
opls_239-330    N    0.50000000    0.75001008    0.75000000    -0.12330000
opls_542-331    N    0.00000000    0.14345002    0.75000000    -0.20050000
opls_542-332    N    0.00000000    0.02314006    0.75000000    -0.20050000
opls_239-333    N    0.00000000    0.25001008    0.75000000    -0.12330000
opls_542-334    N    0.50000000    0.35654998    0.25000000    -0.20050000
opls_542-335    N    0.50000000    0.47685994    0.25000000    -0.20050000
opls_239-336    N    0.50000000    0.24998992    0.25000000    -0.12330000
opls_542-337    N    0.00000000    0.85654998    0.25000000    -0.20050000
opls_542-338    N    0.00000000    0.97685994    0.25000000    -0.20050000
opls_239-339    N    0.00000000    0.74998992    0.25000000    -0.12330000
opls_239-340    N    0.00000000    0.08331993    0.25000000    -0.12330000
opls_239-341    N    0.50000000    0.58331993    0.25000000    -0.12330000
opls_239-342    N    0.00000000    0.91668007    0.75000000    -0.12330000
opls_239-343    N    0.50000000    0.41668007    0.75000000    -0.12330000
opls_146-344    H    0.47274013    0.80244002    0.75000000    0.23950000
opls_146-345    H    0.41809989    0.82034992    0.75000000    0.09900000
opls_146-346    H    0.28810985    0.87157001    0.75000000    0.11420000
opls_146-347    H    0.14635987    0.91093996    0.75000000    0.11850000
opls_146-348    H    0.09222985    0.92924993    0.75000000    0.23890000
opls_146-349    H    0.43497994    0.71015998    0.75000000    0.23950000
opls_146-350    H    0.43544008    0.67388001    0.75000000    0.11300000
opls_146-351    H    0.42358999    0.58327997    0.75000000    0.11430000
opls_146-352    H    0.43542004    0.49272007    0.75000000    0.11850000
opls_146-353    H    0.93502000    0.95650003    0.75000000    0.23950000
opls_146-354    H    0.59227993    0.73742007    0.75000000    0.23950000
opls_146-355    H    0.64647005    0.75578997    0.75000000    0.11300000
opls_146-356    H    0.78829014    0.79517008    0.75000000    0.11740000
opls_146-357    H    0.91822009    0.84636003    0.75000000    0.11850000
opls_146-358    H    0.47275986    0.36426993    0.75000000    0.23950000
opls_146-359    H    0.97274013    0.30244002    0.75000000    0.23950000
opls_146-360    H    0.91809989    0.32034992    0.75000000    0.09900000
opls_146-361    H    0.78810985    0.37157001    0.75000000    0.11420000
opls_146-362    H    0.64635987    0.41093996    0.75000000    0.11850000
opls_146-363    H    0.59222985    0.42924993    0.75000000    0.23890000
opls_146-364    H    0.93497994    0.21015998    0.75000000    0.23950000
opls_146-365    H    0.93544008    0.17388001    0.75000000    0.11300000
opls_146-366    H    0.92358999    0.08327997    0.75000000    0.11430000
opls_146-367    H    0.93542004    0.99272007    0.75000000    0.11850000
opls_146-368    H    0.43502000    0.45650003    0.75000000    0.23950000
opls_146-369    H    0.09227993    0.23742007    0.75000000    0.23950000
opls_146-370    H    0.14647005    0.25578997    0.75000000    0.11300000
opls_146-371    H    0.28829014    0.29517008    0.75000000    0.11740000
opls_146-372    H    0.41822009    0.34636003    0.75000000    0.11850000
opls_146-373    H    0.97275986    0.86426993    0.75000000    0.23950000
opls_146-374    H    0.52725987    0.19755998    0.25000000    0.23950000
opls_146-375    H    0.58190011    0.17965008    0.25000000    0.09900000
opls_146-376    H    0.71189015    0.12842999    0.25000000    0.11420000
opls_146-377    H    0.85364013    0.08906004    0.25000000    0.11850000
opls_146-378    H    0.90777015    0.07075007    0.25000000    0.23890000
opls_146-379    H    0.56502006    0.28984002    0.25000000    0.23950000
opls_146-380    H    0.56455992    0.32611999    0.25000000    0.11300000
opls_146-381    H    0.57641001    0.41672003    0.25000000    0.11430000
opls_146-382    H    0.56457996    0.50727993    0.25000000    0.11850000
opls_146-383    H    0.06498000    0.04349997    0.25000000    0.23950000
opls_146-384    H    0.40772007    0.26257993    0.25000000    0.23950000
opls_146-385    H    0.35352995    0.24421003    0.25000000    0.11300000
opls_146-386    H    0.21170986    0.20482992    0.25000000    0.11740000
opls_146-387    H    0.08177991    0.15363997    0.25000000    0.11850000
opls_146-388    H    0.52724014    0.63573007    0.25000000    0.23950000
opls_146-389    H    0.02725987    0.69755998    0.25000000    0.23950000
opls_146-390    H    0.08190011    0.67965008    0.25000000    0.09900000
opls_146-391    H    0.21189015    0.62842999    0.25000000    0.11420000
opls_146-392    H    0.35364013    0.58906004    0.25000000    0.11850000
opls_146-393    H    0.40777015    0.57075007    0.25000000    0.23890000
opls_146-394    H    0.06502006    0.78984002    0.25000000    0.23950000
opls_146-395    H    0.06455992    0.82611999    0.25000000    0.11300000
opls_146-396    H    0.07641001    0.91672003    0.25000000    0.11430000
opls_146-397    H    0.06457996    0.00727993    0.25000000    0.11850000
opls_146-398    H    0.56498000    0.54349997    0.25000000    0.23950000
opls_146-399    H    0.90772007    0.76257993    0.25000000    0.23950000
opls_146-400    H    0.85352995    0.74421003    0.25000000    0.11300000
opls_146-401    H    0.71170986    0.70482992    0.25000000    0.11740000
opls_146-402    H    0.58177991    0.65363997    0.25000000    0.11850000
opls_146-403    H    0.02724014    0.13573007    0.25000000    0.23950000
opls_146-404    H    0.52725987    0.80244002    0.75000000    0.23950000
opls_146-405    H    0.58190011    0.82034992    0.75000000    0.09900000
opls_146-406    H    0.71189015    0.87157001    0.75000000    0.11420000
opls_146-407    H    0.85364013    0.91093996    0.75000000    0.11850000
opls_146-408    H    0.90777015    0.92924993    0.75000000    0.23890000
opls_146-409    H    0.56502006    0.71015998    0.75000000    0.23950000
opls_146-410    H    0.56455992    0.67388001    0.75000000    0.11300000
opls_146-411    H    0.57641001    0.58327997    0.75000000    0.11430000
opls_146-412    H    0.56457996    0.49272007    0.75000000    0.11850000
opls_146-413    H    0.06498000    0.95650003    0.75000000    0.23950000
opls_146-414    H    0.40772007    0.73742007    0.75000000    0.23950000
opls_146-415    H    0.35352995    0.75578997    0.75000000    0.11300000
opls_146-416    H    0.21170986    0.79517008    0.75000000    0.11740000
opls_146-417    H    0.08177991    0.84636003    0.75000000    0.11850000
opls_146-418    H    0.52724014    0.36426993    0.75000000    0.23950000
opls_146-419    H    0.02725987    0.30244002    0.75000000    0.23950000
opls_146-420    H    0.08190011    0.32034992    0.75000000    0.09900000
opls_146-421    H    0.21189015    0.37157001    0.75000000    0.11420000
opls_146-422    H    0.35364013    0.41093996    0.75000000    0.11850000
opls_146-423    H    0.40777015    0.42924993    0.75000000    0.23890000
opls_146-424    H    0.06502006    0.21015998    0.75000000    0.23950000
opls_146-425    H    0.06455992    0.17388001    0.75000000    0.11300000
opls_146-426    H    0.07641001    0.08327997    0.75000000    0.11430000
opls_146-427    H    0.06457996    0.99272007    0.75000000    0.11850000
opls_146-428    H    0.56498000    0.45650003    0.75000000    0.23950000
opls_146-429    H    0.90772007    0.23742007    0.75000000    0.23950000
opls_146-430    H    0.85352995    0.25578997    0.75000000    0.11300000
opls_146-431    H    0.71170986    0.29517008    0.75000000    0.11740000
opls_146-432    H    0.58177991    0.34636003    0.75000000    0.11850000
opls_146-433    H    0.02724014    0.86426993    0.75000000    0.23950000
opls_146-434    H    0.47274013    0.19755998    0.25000000    0.23950000
opls_146-435    H    0.41809989    0.17965008    0.25000000    0.09900000
opls_146-436    H    0.28810985    0.12842999    0.25000000    0.11420000
opls_146-437    H    0.14635987    0.08906004    0.25000000    0.11850000
opls_146-438    H    0.09222985    0.07075007    0.25000000    0.23890000
opls_146-439    H    0.43497994    0.28984002    0.25000000    0.23950000
opls_146-440    H    0.43544008    0.32611999    0.25000000    0.11300000
opls_146-441    H    0.42358999    0.41672003    0.25000000    0.11430000
opls_146-442    H    0.43542004    0.50727993    0.25000000    0.11850000
opls_146-443    H    0.93502000    0.04349997    0.25000000    0.23950000
opls_146-444    H    0.59227993    0.26257993    0.25000000    0.23950000
opls_146-445    H    0.64647005    0.24421003    0.25000000    0.11300000
opls_146-446    H    0.78829014    0.20482992    0.25000000    0.11740000
opls_146-447    H    0.91822009    0.15363997    0.25000000    0.11850000
opls_146-448    H    0.47275986    0.63573007    0.25000000    0.23950000
opls_146-449    H    0.97274013    0.69755998    0.25000000    0.23950000
opls_146-450    H    0.91809989    0.67965008    0.25000000    0.09900000
opls_146-451    H    0.78810985    0.62842999    0.25000000    0.11420000
opls_146-452    H    0.64635987    0.58906004    0.25000000    0.11850000
opls_146-453    H    0.59222985    0.57075007    0.25000000    0.23890000
opls_146-454    H    0.93497994    0.78984002    0.25000000    0.23950000
opls_146-455    H    0.93544008    0.82611999    0.25000000    0.11300000
opls_146-456    H    0.92358999    0.91672003    0.25000000    0.11430000
opls_146-457    H    0.93542004    0.00727993    0.25000000    0.11850000
opls_146-458    H    0.43502000    0.54349997    0.25000000    0.23950000
opls_146-459    H    0.09227993    0.76257993    0.25000000    0.23950000
opls_146-460    H    0.14647005    0.74421003    0.25000000    0.11300000
opls_146-461    H    0.28829014    0.70482992    0.25000000    0.11740000
opls_146-462    H    0.41822009    0.65363997    0.25000000    0.11850000
opls_146-463    H    0.97275986    0.13573007    0.25000000    0.23950000
