#======================================================================
# Crystal Data Generated By AuToFF
#----------------------------------------------------------------------

data_AuToFF_phase_1

_cell_length_a                         28.2477
_cell_length_b                         28.2477
_cell_length_c                         28.2477
_cell_angle_alpha                      90.00
_cell_angle_beta                       90.00
_cell_angle_gamma                      90.00
_symmetry_space_group_name_H-M_alt     'P 1'
_symmetry_space_group_IT_number        1

loop_
_space_group_symop_operation_xyz
   'x, y, z'

loop_
   _atom_site_label
   _atom_site_type_symbol
   _atom_site_fract_x
   _atom_site_fract_y
   _atom_site_fract_z
   _atom_site_charge
opls_145-0    C    0.34069995    0.07965994    0.20000991    -0.08450000
opls_145-1    C    0.33590983    0.05139002    0.24007017    -0.21400000
opls_145-2    C    0.30020993    0.06124994    0.27253015    -0.08370000
opls_145-3    C    0.26988994    0.09920985    0.26532992    -0.06310000
opls_145-4    C    0.27496009    0.12788015    0.22548986    -0.23800000
opls_145-5    C    0.31061998    0.11783012    0.19289995    -0.06320000
opls_145-6    C    0.84069995    0.57965994    0.70000991    -0.08450000
opls_145-7    C    0.83590983    0.55139002    0.74007017    -0.21400000
opls_145-8    C    0.80020993    0.56124994    0.77253015    -0.08370000
opls_145-9    C    0.76988994    0.59920985    0.76532992    -0.06310000
opls_145-10    C    0.77496009    0.62788015    0.72548986    -0.23800000
opls_145-11    C    0.81061998    0.61783012    0.69289995    -0.06320000
opls_145-12    C    0.15930005    0.92034006    0.70000991    -0.08450000
opls_145-13    C    0.16409017    0.94860998    0.74007017    -0.21400000
opls_145-14    C    0.19979007    0.93875006    0.77253015    -0.08370000
opls_145-15    C    0.23011006    0.90079015    0.76532992    -0.06310000
opls_145-16    C    0.22503991    0.87211985    0.72548986    -0.23800000
opls_145-17    C    0.18938002    0.88216988    0.69289995    -0.06320000
opls_145-18    C    0.65930005    0.42034006    0.20000991    -0.08450000
opls_145-19    C    0.66409017    0.44860998    0.24007017    -0.21400000
opls_145-20    C    0.69979007    0.43875006    0.27253015    -0.08370000
opls_145-21    C    0.73011006    0.40079015    0.26532992    -0.06310000
opls_145-22    C    0.72503991    0.37211985    0.22548986    -0.23800000
opls_145-23    C    0.68938002    0.38216988    0.19289995    -0.06320000
opls_145-24    C    0.65930005    0.57965994    0.29999009    -0.08450000
opls_145-25    C    0.66409017    0.55139002    0.25992983    -0.21400000
opls_145-26    C    0.69979007    0.56124994    0.22746985    -0.08370000
opls_145-27    C    0.73011006    0.59920985    0.23467008    -0.06310000
opls_145-28    C    0.72503991    0.62788015    0.27451014    -0.23800000
opls_145-29    C    0.68938002    0.61783012    0.30710005    -0.06320000
opls_145-30    C    0.15930005    0.07965994    0.79999009    -0.08450000
opls_145-31    C    0.16409017    0.05139002    0.75992983    -0.21400000
opls_145-32    C    0.19979007    0.06124994    0.72746985    -0.08370000
opls_145-33    C    0.23011006    0.09920985    0.73467008    -0.06310000
opls_145-34    C    0.22503991    0.12788015    0.77451014    -0.23800000
opls_145-35    C    0.18938002    0.11783012    0.80710005    -0.06320000
opls_145-36    C    0.84069995    0.42034006    0.79999009    -0.08450000
opls_145-37    C    0.83590983    0.44860998    0.75992983    -0.21400000
opls_145-38    C    0.80020993    0.43875006    0.72746985    -0.08370000
opls_145-39    C    0.76988994    0.40079015    0.73467008    -0.06310000
opls_145-40    C    0.77496009    0.37211985    0.77451014    -0.23800000
opls_145-41    C    0.81061998    0.38216988    0.80710005    -0.06320000
opls_145-42    C    0.34069995    0.92034006    0.29999009    -0.08450000
opls_145-43    C    0.33590983    0.94860998    0.25992983    -0.21400000
opls_145-44    C    0.30020993    0.93875006    0.22746985    -0.08370000
opls_145-45    C    0.26988994    0.90079015    0.23467008    -0.06310000
opls_145-46    C    0.27496009    0.87211985    0.27451014    -0.23800000
opls_145-47    C    0.31061998    0.88216988    0.30710005    -0.06320000
opls_145-48    C    0.20000991    0.34069995    0.07965994    -0.08450000
opls_145-49    C    0.24007017    0.33590983    0.05139002    -0.21400000
opls_145-50    C    0.27253015    0.30020993    0.06124994    -0.08370000
opls_145-51    C    0.26532992    0.26988994    0.09920985    -0.06310000
opls_145-52    C    0.22548986    0.27496009    0.12788015    -0.23800000
opls_145-53    C    0.19289995    0.31061998    0.11783012    -0.06320000
opls_145-54    C    0.70000991    0.84069995    0.57965994    -0.08450000
opls_145-55    C    0.74007017    0.83590983    0.55139002    -0.21400000
opls_145-56    C    0.77253015    0.80020993    0.56124994    -0.08370000
opls_145-57    C    0.76532992    0.76988994    0.59920985    -0.06310000
opls_145-58    C    0.72548986    0.77496009    0.62788015    -0.23800000
opls_145-59    C    0.69289995    0.81061998    0.61783012    -0.06320000
opls_145-60    C    0.70000991    0.15930005    0.92034006    -0.08450000
opls_145-61    C    0.74007017    0.16409017    0.94860998    -0.21400000
opls_145-62    C    0.77253015    0.19979007    0.93875006    -0.08370000
opls_145-63    C    0.76532992    0.23011006    0.90079015    -0.06310000
opls_145-64    C    0.72548986    0.22503991    0.87211985    -0.23800000
opls_145-65    C    0.69289995    0.18938002    0.88216988    -0.06320000
opls_145-66    C    0.20000991    0.65930005    0.42034006    -0.08450000
opls_145-67    C    0.24007017    0.66409017    0.44860998    -0.21400000
opls_145-68    C    0.27253015    0.69979007    0.43875006    -0.08370000
opls_145-69    C    0.26532992    0.73011006    0.40079015    -0.06310000
opls_145-70    C    0.22548986    0.72503991    0.37211985    -0.23800000
opls_145-71    C    0.19289995    0.68938002    0.38216988    -0.06320000
opls_145-72    C    0.29999009    0.65930005    0.57965994    -0.08450000
opls_145-73    C    0.25992983    0.66409017    0.55139002    -0.21400000
opls_145-74    C    0.22746985    0.69979007    0.56124994    -0.08370000
opls_145-75    C    0.23467008    0.73011006    0.59920985    -0.06310000
opls_145-76    C    0.27451014    0.72503991    0.62788015    -0.23800000
opls_145-77    C    0.30710005    0.68938002    0.61783012    -0.06320000
opls_145-78    C    0.79999009    0.15930005    0.07965994    -0.08450000
opls_145-79    C    0.75992983    0.16409017    0.05139002    -0.21400000
opls_145-80    C    0.72746985    0.19979007    0.06124994    -0.08370000
opls_145-81    C    0.73467008    0.23011006    0.09920985    -0.06310000
opls_145-82    C    0.77451014    0.22503991    0.12788015    -0.23800000
opls_145-83    C    0.80710005    0.18938002    0.11783012    -0.06320000
opls_145-84    C    0.79999009    0.84069995    0.42034006    -0.08450000
opls_145-85    C    0.75992983    0.83590983    0.44860998    -0.21400000
opls_145-86    C    0.72746985    0.80020993    0.43875006    -0.08370000
opls_145-87    C    0.73467008    0.76988994    0.40079015    -0.06310000
opls_145-88    C    0.77451014    0.77496009    0.37211985    -0.23800000
opls_145-89    C    0.80710005    0.81061998    0.38216988    -0.06320000
opls_145-90    C    0.29999009    0.34069995    0.92034006    -0.08450000
opls_145-91    C    0.25992983    0.33590983    0.94860998    -0.21400000
opls_145-92    C    0.22746985    0.30020993    0.93875006    -0.08370000
opls_145-93    C    0.23467008    0.26988994    0.90079015    -0.06310000
opls_145-94    C    0.27451014    0.27496009    0.87211985    -0.23800000
opls_145-95    C    0.30710005    0.31061998    0.88216988    -0.06320000
opls_145-96    C    0.07965994    0.20000991    0.34069995    -0.08450000
opls_145-97    C    0.05139002    0.24007017    0.33590983    -0.21400000
opls_145-98    C    0.06124994    0.27253015    0.30020993    -0.08370000
opls_145-99    C    0.09920985    0.26532992    0.26988994    -0.06310000
opls_145-100    C    0.12788015    0.22548986    0.27496009    -0.23800000
opls_145-101    C    0.11783012    0.19289995    0.31061998    -0.06320000
opls_145-102    C    0.57965994    0.70000991    0.84069995    -0.08450000
opls_145-103    C    0.55139002    0.74007017    0.83590983    -0.21400000
opls_145-104    C    0.56124994    0.77253015    0.80020993    -0.08370000
opls_145-105    C    0.59920985    0.76532992    0.76988994    -0.06310000
opls_145-106    C    0.62788015    0.72548986    0.77496009    -0.23800000
opls_145-107    C    0.61783012    0.69289995    0.81061998    -0.06320000
opls_145-108    C    0.92034006    0.70000991    0.15930005    -0.08450000
opls_145-109    C    0.94860998    0.74007017    0.16409017    -0.21400000
opls_145-110    C    0.93875006    0.77253015    0.19979007    -0.08370000
opls_145-111    C    0.90079015    0.76532992    0.23011006    -0.06310000
opls_145-112    C    0.87211985    0.72548986    0.22503991    -0.23800000
opls_145-113    C    0.88216988    0.69289995    0.18938002    -0.06320000
opls_145-114    C    0.42034006    0.20000991    0.65930005    -0.08450000
opls_145-115    C    0.44860998    0.24007017    0.66409017    -0.21400000
opls_145-116    C    0.43875006    0.27253015    0.69979007    -0.08370000
opls_145-117    C    0.40079015    0.26532992    0.73011006    -0.06310000
opls_145-118    C    0.37211985    0.22548986    0.72503991    -0.23800000
opls_145-119    C    0.38216988    0.19289995    0.68938002    -0.06320000
opls_145-120    C    0.57965994    0.29999009    0.65930005    -0.08450000
opls_145-121    C    0.55139002    0.25992983    0.66409017    -0.21400000
opls_145-122    C    0.56124994    0.22746985    0.69979007    -0.08370000
opls_145-123    C    0.59920985    0.23467008    0.73011006    -0.06310000
opls_145-124    C    0.62788015    0.27451014    0.72503991    -0.23800000
opls_145-125    C    0.61783012    0.30710005    0.68938002    -0.06320000
opls_145-126    C    0.07965994    0.79999009    0.15930005    -0.08450000
opls_145-127    C    0.05139002    0.75992983    0.16409017    -0.21400000
opls_145-128    C    0.06124994    0.72746985    0.19979007    -0.08370000
opls_145-129    C    0.09920985    0.73467008    0.23011006    -0.06310000
opls_145-130    C    0.12788015    0.77451014    0.22503991    -0.23800000
opls_145-131    C    0.11783012    0.80710005    0.18938002    -0.06320000
opls_145-132    C    0.42034006    0.79999009    0.84069995    -0.08450000
opls_145-133    C    0.44860998    0.75992983    0.83590983    -0.21400000
opls_145-134    C    0.43875006    0.72746985    0.80020993    -0.08370000
opls_145-135    C    0.40079015    0.73467008    0.76988994    -0.06310000
opls_145-136    C    0.37211985    0.77451014    0.77496009    -0.23800000
opls_145-137    C    0.38216988    0.80710005    0.81061998    -0.06320000
opls_145-138    C    0.92034006    0.29999009    0.34069995    -0.08450000
opls_145-139    C    0.94860998    0.25992983    0.33590983    -0.21400000
opls_145-140    C    0.93875006    0.22746985    0.30020993    -0.08370000
opls_145-141    C    0.90079015    0.23467008    0.26988994    -0.06310000
opls_145-142    C    0.87211985    0.27451014    0.27496009    -0.23800000
opls_145-143    C    0.88216988    0.30710005    0.31061998    -0.06320000
opls_145-144    C    0.32966011    0.59070013    0.45001009    -0.08450000
opls_145-145    C    0.30138985    0.58591000    0.49006999    -0.21400000
opls_145-146    C    0.31125012    0.55021011    0.52252998    -0.08370000
opls_145-147    C    0.34921002    0.51989011    0.51533010    -0.06310000
opls_145-148    C    0.37787997    0.52495991    0.47549004    -0.23800000
opls_145-149    C    0.36782995    0.56062016    0.44290013    -0.06320000
opls_145-150    C    0.82966011    0.09070013    0.95001009    -0.08450000
opls_145-151    C    0.80138985    0.08591000    0.99006999    -0.21400000
opls_145-152    C    0.81125012    0.05021011    0.02252998    -0.08370000
opls_145-153    C    0.84921002    0.01989011    0.01533010    -0.06310000
opls_145-154    C    0.87787997    0.02495991    0.97549004    -0.23800000
opls_145-155    C    0.86782995    0.06062016    0.94290013    -0.06320000
opls_145-156    C    0.17033989    0.40929987    0.95001009    -0.08450000
opls_145-157    C    0.19861015    0.41409000    0.99006999    -0.21400000
opls_145-158    C    0.18874988    0.44978989    0.02252998    -0.08370000
opls_145-159    C    0.15078998    0.48010989    0.01533010    -0.06310000
opls_145-160    C    0.12212003    0.47504009    0.97549004    -0.23800000
opls_145-161    C    0.13217005    0.43937984    0.94290013    -0.06320000
opls_145-162    C    0.67033989    0.90929987    0.45001009    -0.08450000
opls_145-163    C    0.69861015    0.91409000    0.49006999    -0.21400000
opls_145-164    C    0.68874988    0.94978989    0.52252998    -0.08370000
opls_145-165    C    0.65078998    0.98010989    0.51533010    -0.06310000
opls_145-166    C    0.62212003    0.97504009    0.47549004    -0.23800000
opls_145-167    C    0.63217005    0.93937984    0.44290013    -0.06320000
opls_145-168    C    0.82966011    0.90929987    0.54998991    -0.08450000
opls_145-169    C    0.80138985    0.91409000    0.50993001    -0.21400000
opls_145-170    C    0.81125012    0.94978989    0.47747002    -0.08370000
opls_145-171    C    0.84921002    0.98010989    0.48466990    -0.06310000
opls_145-172    C    0.87787997    0.97504009    0.52450996    -0.23800000
opls_145-173    C    0.86782995    0.93937984    0.55709987    -0.06320000
opls_145-174    C    0.32966011    0.40929987    0.04998991    -0.08450000
opls_145-175    C    0.30138985    0.41409000    0.00993001    -0.21400000
opls_145-176    C    0.31125012    0.44978989    0.97747002    -0.08370000
opls_145-177    C    0.34921002    0.48010989    0.98466990    -0.06310000
opls_145-178    C    0.37787997    0.47504009    0.02450996    -0.23800000
opls_145-179    C    0.36782995    0.43937984    0.05709987    -0.06320000
opls_145-180    C    0.67033989    0.09070013    0.04998991    -0.08450000
opls_145-181    C    0.69861015    0.08591000    0.00993001    -0.21400000
opls_145-182    C    0.68874988    0.05021011    0.97747002    -0.08370000
opls_145-183    C    0.65078998    0.01989011    0.98466990    -0.06310000
opls_145-184    C    0.62212003    0.02495991    0.02450996    -0.23800000
opls_145-185    C    0.63217005    0.06062016    0.05709987    -0.06320000
opls_145-186    C    0.17033989    0.59070013    0.54998991    -0.08450000
opls_145-187    C    0.19861015    0.58591000    0.50993001    -0.21400000
opls_145-188    C    0.18874988    0.55021011    0.47747002    -0.08370000
opls_145-189    C    0.15078998    0.51989011    0.48466990    -0.06310000
opls_145-190    C    0.12212003    0.52495991    0.52450996    -0.23800000
opls_145-191    C    0.13217005    0.56062016    0.55709987    -0.06320000
opls_145-192    C    0.59070013    0.45001009    0.32966011    -0.08450000
opls_145-193    C    0.58591000    0.49006999    0.30138985    -0.21400000
opls_145-194    C    0.55021011    0.52252998    0.31125012    -0.08370000
opls_145-195    C    0.51989011    0.51533010    0.34921002    -0.06310000
opls_145-196    C    0.52495991    0.47549004    0.37787997    -0.23800000
opls_145-197    C    0.56062016    0.44290013    0.36782995    -0.06320000
opls_145-198    C    0.09070013    0.95001009    0.82966011    -0.08450000
opls_145-199    C    0.08591000    0.99006999    0.80138985    -0.21400000
opls_145-200    C    0.05021011    0.02252998    0.81125012    -0.08370000
opls_145-201    C    0.01989011    0.01533010    0.84921002    -0.06310000
opls_145-202    C    0.02495991    0.97549004    0.87787997    -0.23800000
opls_145-203    C    0.06062016    0.94290013    0.86782995    -0.06320000
opls_145-204    C    0.40929987    0.95001009    0.17033989    -0.08450000
opls_145-205    C    0.41409000    0.99006999    0.19861015    -0.21400000
opls_145-206    C    0.44978989    0.02252998    0.18874988    -0.08370000
opls_145-207    C    0.48010989    0.01533010    0.15078998    -0.06310000
opls_145-208    C    0.47504009    0.97549004    0.12212003    -0.23800000
opls_145-209    C    0.43937984    0.94290013    0.13217005    -0.06320000
opls_145-210    C    0.90929987    0.45001009    0.67033989    -0.08450000
opls_145-211    C    0.91409000    0.49006999    0.69861015    -0.21400000
opls_145-212    C    0.94978989    0.52252998    0.68874988    -0.08370000
opls_145-213    C    0.98010989    0.51533010    0.65078998    -0.06310000
opls_145-214    C    0.97504009    0.47549004    0.62212003    -0.23800000
opls_145-215    C    0.93937984    0.44290013    0.63217005    -0.06320000
opls_145-216    C    0.90929987    0.54998991    0.82966011    -0.08450000
opls_145-217    C    0.91409000    0.50993001    0.80138985    -0.21400000
opls_145-218    C    0.94978989    0.47747002    0.81125012    -0.08370000
opls_145-219    C    0.98010989    0.48466990    0.84921002    -0.06310000
opls_145-220    C    0.97504009    0.52450996    0.87787997    -0.23800000
opls_145-221    C    0.93937984    0.55709987    0.86782995    -0.06320000
opls_145-222    C    0.40929987    0.04998991    0.32966011    -0.08450000
opls_145-223    C    0.41409000    0.00993001    0.30138985    -0.21400000
opls_145-224    C    0.44978989    0.97747002    0.31125012    -0.08370000
opls_145-225    C    0.48010989    0.98466990    0.34921002    -0.06310000
opls_145-226    C    0.47504009    0.02450996    0.37787997    -0.23800000
opls_145-227    C    0.43937984    0.05709987    0.36782995    -0.06320000
opls_145-228    C    0.09070013    0.04998991    0.67033989    -0.08450000
opls_145-229    C    0.08591000    0.00993001    0.69861015    -0.21400000
opls_145-230    C    0.05021011    0.97747002    0.68874988    -0.08370000
opls_145-231    C    0.01989011    0.98466990    0.65078998    -0.06310000
opls_145-232    C    0.02495991    0.02450996    0.62212003    -0.23800000
opls_145-233    C    0.06062016    0.05709987    0.63217005    -0.06320000
opls_145-234    C    0.59070013    0.54998991    0.17033989    -0.08450000
opls_145-235    C    0.58591000    0.50993001    0.19861015    -0.21400000
opls_145-236    C    0.55021011    0.47747002    0.18874988    -0.08370000
opls_145-237    C    0.51989011    0.48466990    0.15078998    -0.06310000
opls_145-238    C    0.52495991    0.52450996    0.12212003    -0.23800000
opls_145-239    C    0.56062016    0.55709987    0.13217005    -0.06320000
opls_145-240    C    0.45001009    0.32966011    0.59070013    -0.08450000
opls_145-241    C    0.49006999    0.30138985    0.58591000    -0.21400000
opls_145-242    C    0.52252998    0.31125012    0.55021011    -0.08370000
opls_145-243    C    0.51533010    0.34921002    0.51989011    -0.06310000
opls_145-244    C    0.47549004    0.37787997    0.52495991    -0.23800000
opls_145-245    C    0.44290013    0.36782995    0.56062016    -0.06320000
opls_145-246    C    0.95001009    0.82966011    0.09070013    -0.08450000
opls_145-247    C    0.99006999    0.80138985    0.08591000    -0.21400000
opls_145-248    C    0.02252998    0.81125012    0.05021011    -0.08370000
opls_145-249    C    0.01533010    0.84921002    0.01989011    -0.06310000
opls_145-250    C    0.97549004    0.87787997    0.02495991    -0.23800000
opls_145-251    C    0.94290013    0.86782995    0.06062016    -0.06320000
opls_145-252    C    0.95001009    0.17033989    0.40929987    -0.08450000
opls_145-253    C    0.99006999    0.19861015    0.41409000    -0.21400000
opls_145-254    C    0.02252998    0.18874988    0.44978989    -0.08370000
opls_145-255    C    0.01533010    0.15078998    0.48010989    -0.06310000
opls_145-256    C    0.97549004    0.12212003    0.47504009    -0.23800000
opls_145-257    C    0.94290013    0.13217005    0.43937984    -0.06320000
opls_145-258    C    0.45001009    0.67033989    0.90929987    -0.08450000
opls_145-259    C    0.49006999    0.69861015    0.91409000    -0.21400000
opls_145-260    C    0.52252998    0.68874988    0.94978989    -0.08370000
opls_145-261    C    0.51533010    0.65078998    0.98010989    -0.06310000
opls_145-262    C    0.47549004    0.62212003    0.97504009    -0.23800000
opls_145-263    C    0.44290013    0.63217005    0.93937984    -0.06320000
opls_145-264    C    0.54998991    0.82966011    0.90929987    -0.08450000
opls_145-265    C    0.50993001    0.80138985    0.91409000    -0.21400000
opls_145-266    C    0.47747002    0.81125012    0.94978989    -0.08370000
opls_145-267    C    0.48466990    0.84921002    0.98010989    -0.06310000
opls_145-268    C    0.52450996    0.87787997    0.97504009    -0.23800000
opls_145-269    C    0.55709987    0.86782995    0.93937984    -0.06320000
opls_145-270    C    0.04998991    0.32966011    0.40929987    -0.08450000
opls_145-271    C    0.00993001    0.30138985    0.41409000    -0.21400000
opls_145-272    C    0.97747002    0.31125012    0.44978989    -0.08370000
opls_145-273    C    0.98466990    0.34921002    0.48010989    -0.06310000
opls_145-274    C    0.02450996    0.37787997    0.47504009    -0.23800000
opls_145-275    C    0.05709987    0.36782995    0.43937984    -0.06320000
opls_145-276    C    0.04998991    0.67033989    0.09070013    -0.08450000
opls_145-277    C    0.00993001    0.69861015    0.08591000    -0.21400000
opls_145-278    C    0.97747002    0.68874988    0.05021011    -0.08370000
opls_145-279    C    0.98466990    0.65078998    0.01989011    -0.06310000
opls_145-280    C    0.02450996    0.62212003    0.02495991    -0.23800000
opls_145-281    C    0.05709987    0.63217005    0.06062016    -0.06320000
opls_145-282    C    0.54998991    0.17033989    0.59070013    -0.08450000
opls_145-283    C    0.50993001    0.19861015    0.58591000    -0.21400000
opls_145-284    C    0.47747002    0.18874988    0.55021011    -0.08370000
opls_145-285    C    0.48466990    0.15078998    0.51989011    -0.06310000
opls_145-286    C    0.52450996    0.12212003    0.52495991    -0.23800000
opls_145-287    C    0.55709987    0.13217005    0.56062016    -0.06320000
opls_146-288    H    0.36747983    0.07242006    0.17407010    0.10820000
opls_146-289    H    0.29575010    0.03948994    0.30344984    0.11810000
opls_146-290    H    0.24263002    0.10606987    0.29099998    0.11810000
opls_146-291    H    0.31517008    0.13920001    0.16171016    0.08750000
opls_146-292    H    0.86747983    0.57242006    0.67407010    0.10820000
opls_146-293    H    0.79575010    0.53948994    0.80344984    0.11810000
opls_146-294    H    0.74263002    0.60606987    0.79099998    0.11810000
opls_146-295    H    0.81517008    0.63920001    0.66171016    0.08750000
opls_146-296    H    0.13252017    0.92757994    0.67407010    0.10820000
opls_146-297    H    0.20424990    0.96051006    0.80344984    0.11810000
opls_146-298    H    0.25736998    0.89393013    0.79099998    0.11810000
opls_146-299    H    0.18482992    0.86079999    0.66171016    0.08750000
opls_146-300    H    0.63252017    0.42757994    0.17407010    0.10820000
opls_146-301    H    0.70424990    0.46051006    0.30344984    0.11810000
opls_146-302    H    0.75736998    0.39393013    0.29099998    0.11810000
opls_146-303    H    0.68482992    0.36079999    0.16171016    0.08750000
opls_146-304    H    0.63252017    0.57242006    0.32592990    0.10820000
opls_146-305    H    0.70424990    0.53948994    0.19655016    0.11810000
opls_146-306    H    0.75736998    0.60606987    0.20900002    0.11810000
opls_146-307    H    0.68482992    0.63920001    0.33828984    0.08750000
opls_146-308    H    0.13252017    0.07242006    0.82592990    0.10820000
opls_146-309    H    0.20424990    0.03948994    0.69655016    0.11810000
opls_146-310    H    0.25736998    0.10606987    0.70900002    0.11810000
opls_146-311    H    0.18482992    0.13920001    0.83828984    0.08750000
opls_146-312    H    0.86747983    0.42757994    0.82592990    0.10820000
opls_146-313    H    0.79575010    0.46051006    0.69655016    0.11810000
opls_146-314    H    0.74263002    0.39393013    0.70900002    0.11810000
opls_146-315    H    0.81517008    0.36079999    0.83828984    0.08750000
opls_146-316    H    0.36747983    0.92757994    0.32592990    0.10820000
opls_146-317    H    0.29575010    0.96051006    0.19655016    0.11810000
opls_146-318    H    0.24263002    0.89393013    0.20900002    0.11810000
opls_146-319    H    0.31517008    0.86079999    0.33828984    0.08750000
opls_146-320    H    0.17407010    0.36747983    0.07242006    0.10820000
opls_146-321    H    0.30344984    0.29575010    0.03948994    0.11810000
opls_146-322    H    0.29099998    0.24263002    0.10606987    0.11810000
opls_146-323    H    0.16171016    0.31517008    0.13920001    0.08750000
opls_146-324    H    0.67407010    0.86747983    0.57242006    0.10820000
opls_146-325    H    0.80344984    0.79575010    0.53948994    0.11810000
opls_146-326    H    0.79099998    0.74263002    0.60606987    0.11810000
opls_146-327    H    0.66171016    0.81517008    0.63920001    0.08750000
opls_146-328    H    0.67407010    0.13252017    0.92757994    0.10820000
opls_146-329    H    0.80344984    0.20424990    0.96051006    0.11810000
opls_146-330    H    0.79099998    0.25736998    0.89393013    0.11810000
opls_146-331    H    0.66171016    0.18482992    0.86079999    0.08750000
opls_146-332    H    0.17407010    0.63252017    0.42757994    0.10820000
opls_146-333    H    0.30344984    0.70424990    0.46051006    0.11810000
opls_146-334    H    0.29099998    0.75736998    0.39393013    0.11810000
opls_146-335    H    0.16171016    0.68482992    0.36079999    0.08750000
opls_146-336    H    0.32592990    0.63252017    0.57242006    0.10820000
opls_146-337    H    0.19655016    0.70424990    0.53948994    0.11810000
opls_146-338    H    0.20900002    0.75736998    0.60606987    0.11810000
opls_146-339    H    0.33828984    0.68482992    0.63920001    0.08750000
opls_146-340    H    0.82592990    0.13252017    0.07242006    0.10820000
opls_146-341    H    0.69655016    0.20424990    0.03948994    0.11810000
opls_146-342    H    0.70900002    0.25736998    0.10606987    0.11810000
opls_146-343    H    0.83828984    0.18482992    0.13920001    0.08750000
opls_146-344    H    0.82592990    0.86747983    0.42757994    0.10820000
opls_146-345    H    0.69655016    0.79575010    0.46051006    0.11810000
opls_146-346    H    0.70900002    0.74263002    0.39393013    0.11810000
opls_146-347    H    0.83828984    0.81517008    0.36079999    0.08750000
opls_146-348    H    0.32592990    0.36747983    0.92757994    0.10820000
opls_146-349    H    0.19655016    0.29575010    0.96051006    0.11810000
opls_146-350    H    0.20900002    0.24263002    0.89393013    0.11810000
opls_146-351    H    0.33828984    0.31517008    0.86079999    0.08750000
opls_146-352    H    0.07242006    0.17407010    0.36747983    0.10820000
opls_146-353    H    0.03948994    0.30344984    0.29575010    0.11810000
opls_146-354    H    0.10606987    0.29099998    0.24263002    0.11810000
opls_146-355    H    0.13920001    0.16171016    0.31517008    0.08750000
opls_146-356    H    0.57242006    0.67407010    0.86747983    0.10820000
opls_146-357    H    0.53948994    0.80344984    0.79575010    0.11810000
opls_146-358    H    0.60606987    0.79099998    0.74263002    0.11810000
opls_146-359    H    0.63920001    0.66171016    0.81517008    0.08750000
opls_146-360    H    0.92757994    0.67407010    0.13252017    0.10820000
opls_146-361    H    0.96051006    0.80344984    0.20424990    0.11810000
opls_146-362    H    0.89393013    0.79099998    0.25736998    0.11810000
opls_146-363    H    0.86079999    0.66171016    0.18482992    0.08750000
opls_146-364    H    0.42757994    0.17407010    0.63252017    0.10820000
opls_146-365    H    0.46051006    0.30344984    0.70424990    0.11810000
opls_146-366    H    0.39393013    0.29099998    0.75736998    0.11810000
opls_146-367    H    0.36079999    0.16171016    0.68482992    0.08750000
opls_146-368    H    0.57242006    0.32592990    0.63252017    0.10820000
opls_146-369    H    0.53948994    0.19655016    0.70424990    0.11810000
opls_146-370    H    0.60606987    0.20900002    0.75736998    0.11810000
opls_146-371    H    0.63920001    0.33828984    0.68482992    0.08750000
opls_146-372    H    0.07242006    0.82592990    0.13252017    0.10820000
opls_146-373    H    0.03948994    0.69655016    0.20424990    0.11810000
opls_146-374    H    0.10606987    0.70900002    0.25736998    0.11810000
opls_146-375    H    0.13920001    0.83828984    0.18482992    0.08750000
opls_146-376    H    0.42757994    0.82592990    0.86747983    0.10820000
opls_146-377    H    0.46051006    0.69655016    0.79575010    0.11810000
opls_146-378    H    0.39393013    0.70900002    0.74263002    0.11810000
opls_146-379    H    0.36079999    0.83828984    0.81517008    0.08750000
opls_146-380    H    0.92757994    0.32592990    0.36747983    0.10820000
opls_146-381    H    0.96051006    0.19655016    0.29575010    0.11810000
opls_146-382    H    0.89393013    0.20900002    0.24263002    0.11810000
opls_146-383    H    0.86079999    0.33828984    0.31517008    0.08750000
opls_146-384    H    0.32241988    0.61748001    0.42406992    0.10820000
opls_146-385    H    0.28949012    0.54574992    0.55345002    0.11810000
opls_146-386    H    0.35607005    0.49262984    0.54100015    0.11810000
opls_146-387    H    0.38919983    0.56516991    0.41170998    0.08750000
opls_146-388    H    0.82241988    0.11748001    0.92406992    0.10820000
opls_146-389    H    0.78949012    0.04574992    0.05345002    0.11810000
opls_146-390    H    0.85607005    0.99262984    0.04100015    0.11810000
opls_146-391    H    0.88919983    0.06516991    0.91170998    0.08750000
opls_146-392    H    0.17758012    0.38251999    0.92406992    0.10820000
opls_146-393    H    0.21050988    0.45425008    0.05345002    0.11810000
opls_146-394    H    0.14392995    0.50737016    0.04100015    0.11810000
opls_146-395    H    0.11080017    0.43483009    0.91170998    0.08750000
opls_146-396    H    0.67758012    0.88251999    0.42406992    0.10820000
opls_146-397    H    0.71050988    0.95425008    0.55345002    0.11810000
opls_146-398    H    0.64392995    0.00737016    0.54100015    0.11810000
opls_146-399    H    0.61080017    0.93483009    0.41170998    0.08750000
opls_146-400    H    0.82241988    0.88251999    0.57593008    0.10820000
opls_146-401    H    0.78949012    0.95425008    0.44654998    0.11810000
opls_146-402    H    0.85607005    0.00737016    0.45899985    0.11810000
opls_146-403    H    0.88919983    0.93483009    0.58829002    0.08750000
opls_146-404    H    0.32241988    0.38251999    0.07593008    0.10820000
opls_146-405    H    0.28949012    0.45425008    0.94654998    0.11810000
opls_146-406    H    0.35607005    0.50737016    0.95899985    0.11810000
opls_146-407    H    0.38919983    0.43483009    0.08829002    0.08750000
opls_146-408    H    0.67758012    0.11748001    0.07593008    0.10820000
opls_146-409    H    0.71050988    0.04574992    0.94654998    0.11810000
opls_146-410    H    0.64392995    0.99262984    0.95899985    0.11800000
opls_146-411    H    0.61080017    0.06516991    0.08829002    0.08750000
opls_146-412    H    0.17758012    0.61748001    0.57593008    0.10820000
opls_146-413    H    0.21050988    0.54574992    0.44654998    0.11810000
opls_146-414    H    0.14392995    0.49262984    0.45899985    0.11810000
opls_146-415    H    0.11080017    0.56516991    0.58829002    0.08750000
opls_146-416    H    0.61748001    0.42406992    0.32241988    0.10820000
opls_146-417    H    0.54574992    0.55345002    0.28949012    0.11810000
opls_146-418    H    0.49262984    0.54100015    0.35607005    0.11810000
opls_146-419    H    0.56516991    0.41170998    0.38919983    0.08750000
opls_146-420    H    0.11748001    0.92406992    0.82241988    0.10820000
opls_146-421    H    0.04574992    0.05345002    0.78949012    0.11810000
opls_146-422    H    0.99262984    0.04100015    0.85607005    0.11810000
opls_146-423    H    0.06516991    0.91170998    0.88919983    0.08750000
opls_146-424    H    0.38251999    0.92406992    0.17758012    0.10820000
opls_146-425    H    0.45425008    0.05345002    0.21050988    0.11810000
opls_146-426    H    0.50737016    0.04100015    0.14392995    0.11810000
opls_146-427    H    0.43483009    0.91170998    0.11080017    0.08750000
opls_146-428    H    0.88251999    0.42406992    0.67758012    0.10820000
opls_146-429    H    0.95425008    0.55345002    0.71050988    0.11810000
opls_146-430    H    0.00737016    0.54100015    0.64392995    0.11810000
opls_146-431    H    0.93483009    0.41170998    0.61080017    0.08750000
opls_146-432    H    0.88251999    0.57593008    0.82241988    0.10820000
opls_146-433    H    0.95425008    0.44654998    0.78949012    0.11810000
opls_146-434    H    0.00737016    0.45899985    0.85607005    0.11810000
opls_146-435    H    0.93483009    0.58829002    0.88919983    0.08750000
opls_146-436    H    0.38251999    0.07593008    0.32241988    0.10820000
opls_146-437    H    0.45425008    0.94654998    0.28949012    0.11810000
opls_146-438    H    0.50737016    0.95899985    0.35607005    0.11810000
opls_146-439    H    0.43483009    0.08829002    0.38919983    0.08750000
opls_146-440    H    0.11748001    0.07593008    0.67758012    0.10820000
opls_146-441    H    0.04574992    0.94654998    0.71050988    0.11810000
opls_146-442    H    0.99262984    0.95899985    0.64392995    0.11810000
opls_146-443    H    0.06516991    0.08829002    0.61080017    0.08750000
opls_146-444    H    0.61748001    0.57593008    0.17758012    0.10820000
opls_146-445    H    0.54574992    0.44654998    0.21050988    0.11810000
opls_146-446    H    0.49262984    0.45899985    0.14392995    0.11810000
opls_146-447    H    0.56516991    0.58829002    0.11080017    0.08750000
opls_146-448    H    0.42406992    0.32241988    0.61748001    0.10820000
opls_146-449    H    0.55345002    0.28949012    0.54574992    0.11810000
opls_146-450    H    0.54100015    0.35607005    0.49262984    0.11810000
opls_146-451    H    0.41170998    0.38919983    0.56516991    0.08750000
opls_146-452    H    0.92406992    0.82241988    0.11748001    0.10820000
opls_146-453    H    0.05345002    0.78949012    0.04574992    0.11810000
opls_146-454    H    0.04100015    0.85607005    0.99262984    0.11810000
opls_146-455    H    0.91170998    0.88919983    0.06516991    0.08750000
opls_146-456    H    0.92406992    0.17758012    0.38251999    0.10820000
opls_146-457    H    0.05345002    0.21050988    0.45425008    0.11800000
opls_146-458    H    0.04100015    0.14392995    0.50737016    0.11810000
opls_146-459    H    0.91170998    0.11080017    0.43483009    0.08750000
opls_146-460    H    0.42406992    0.67758012    0.88251999    0.10820000
opls_146-461    H    0.55345002    0.71050988    0.95425008    0.11810000
opls_146-462    H    0.54100015    0.64392995    0.00737016    0.11810000
opls_146-463    H    0.41170998    0.61080017    0.93483009    0.08750000
opls_146-464    H    0.57593008    0.82241988    0.88251999    0.10820000
opls_146-465    H    0.44654998    0.78949012    0.95425008    0.11810000
opls_146-466    H    0.45899985    0.85607005    0.00737016    0.11810000
opls_146-467    H    0.58829002    0.88919983    0.93483009    0.08750000
opls_146-468    H    0.07593008    0.32241988    0.38251999    0.10820000
opls_146-469    H    0.94654998    0.28949012    0.45425008    0.11810000
opls_146-470    H    0.95899985    0.35607005    0.50737016    0.11810000
opls_146-471    H    0.08829002    0.38919983    0.43483009    0.08750000
opls_146-472    H    0.07593008    0.67758012    0.11748001    0.10820000
opls_146-473    H    0.94654998    0.71050988    0.04574992    0.11810000
opls_146-474    H    0.95899985    0.64392995    0.99262984    0.11800000
opls_146-475    H    0.08829002    0.61080017    0.06516991    0.08750000
opls_146-476    H    0.57593008    0.17758012    0.61748001    0.10820000
opls_146-477    H    0.44654998    0.21050988    0.54574992    0.11810000
opls_146-478    H    0.45899985    0.14392995    0.49262984    0.11810000
opls_146-479    H    0.58829002    0.11080017    0.56516991    0.08750000
MOF2_B_2-480    B    0.24101998    0.17052008    0.21731008    0.73460000
MOF2_B_2-481    B    0.74101998    0.67052008    0.71731008    0.73460000
MOF2_B_2-482    B    0.25898002    0.82947992    0.71731008    0.73460000
MOF2_B_2-483    B    0.75898002    0.32947992    0.21731008    0.73460000
MOF2_B_2-484    B    0.75898002    0.67052008    0.28268992    0.73460000
MOF2_B_2-485    B    0.25898002    0.17052008    0.78268992    0.73460000
MOF2_B_2-486    B    0.74101998    0.32947992    0.78268992    0.73460000
MOF2_B_2-487    B    0.24101998    0.82947992    0.28268992    0.73460000
MOF2_B_2-488    B    0.21731008    0.24101998    0.17052008    0.73460000
MOF2_B_2-489    B    0.71731008    0.74101998    0.67052008    0.73460000
MOF2_B_2-490    B    0.71731008    0.25898002    0.82947992    0.73460000
MOF2_B_2-491    B    0.21731008    0.75898002    0.32947992    0.73460000
MOF2_B_2-492    B    0.28268992    0.75898002    0.67052008    0.73460000
MOF2_B_2-493    B    0.78268992    0.25898002    0.17052008    0.73460000
MOF2_B_2-494    B    0.78268992    0.74101998    0.32947992    0.73460000
MOF2_B_2-495    B    0.28268992    0.24101998    0.82947992    0.73450000
MOF2_B_2-496    B    0.17052008    0.21731008    0.24101998    0.73460000
MOF2_B_2-497    B    0.67052008    0.71731008    0.74101998    0.73450000
MOF2_B_2-498    B    0.82947992    0.71731008    0.25898002    0.73450000
MOF2_B_2-499    B    0.32947992    0.21731008    0.75898002    0.73460000
MOF2_B_2-500    B    0.67052008    0.28268992    0.75898002    0.73460000
MOF2_B_2-501    B    0.17052008    0.78268992    0.25898002    0.73460000
MOF2_B_2-502    B    0.32947992    0.78268992    0.74101998    0.73460000
MOF2_B_2-503    B    0.82947992    0.28268992    0.24101998    0.73460000
MOF2_B_2-504    B    0.42051990    0.49102015    0.46730990    0.73460000
MOF2_B_2-505    B    0.92051990    0.99102015    0.96730990    0.73460000
MOF2_B_2-506    B    0.07948010    0.50897985    0.96730990    0.73460000
MOF2_B_2-507    B    0.57948010    0.00897985    0.46730990    0.73450000
MOF2_B_2-508    B    0.92051990    0.00897985    0.53269010    0.73460000
MOF2_B_2-509    B    0.42051990    0.50897985    0.03269010    0.73460000
MOF2_B_2-510    B    0.57948010    0.99102015    0.03269010    0.73460000
MOF2_B_2-511    B    0.07948010    0.49102015    0.53269010    0.73460000
MOF2_B_2-512    B    0.49102015    0.46730990    0.42051990    0.73460000
MOF2_B_2-513    B    0.99102015    0.96730990    0.92051990    0.73460000
MOF2_B_2-514    B    0.50897985    0.96730990    0.07948010    0.73460000
MOF2_B_2-515    B    0.00897985    0.46730990    0.57948010    0.73450000
MOF2_B_2-516    B    0.00897985    0.53269010    0.92051990    0.73460000
MOF2_B_2-517    B    0.50897985    0.03269010    0.42051990    0.73460000
MOF2_B_2-518    B    0.99102015    0.03269010    0.57948010    0.73460000
MOF2_B_2-519    B    0.49102015    0.53269010    0.07948010    0.73460000
MOF2_B_2-520    B    0.46730990    0.42051990    0.49102015    0.73460000
MOF2_B_2-521    B    0.96730990    0.92051990    0.99102015    0.73460000
MOF2_B_2-522    B    0.96730990    0.07948010    0.50897985    0.73460000
MOF2_B_2-523    B    0.46730990    0.57948010    0.00897985    0.73460000
MOF2_B_2-524    B    0.53269010    0.92051990    0.00897985    0.73460000
MOF2_B_2-525    B    0.03269010    0.42051990    0.50897985    0.73460000
MOF2_B_2-526    B    0.03269010    0.57948010    0.99102015    0.73460000
MOF2_B_2-527    B    0.53269010    0.07948010    0.49102015    0.73450000
opls_180-528    O    0.20173005    0.17738011    0.24978989    -0.58520000
opls_180-529    O    0.70173005    0.67738011    0.74978989    -0.58520000
opls_180-530    O    0.29826995    0.82261989    0.74978989    -0.58520000
opls_180-531    O    0.79826995    0.32261989    0.24978989    -0.58520000
opls_180-532    O    0.79826995    0.67738011    0.25021011    -0.58520000
opls_180-533    O    0.29826995    0.17738011    0.75021011    -0.58520000
opls_180-534    O    0.70173005    0.32261989    0.75021011    -0.58520000
opls_180-535    O    0.20173005    0.82261989    0.25021011    -0.58520000
opls_180-536    O    0.24978989    0.20173005    0.17738011    -0.58520000
opls_180-537    O    0.74978989    0.70173005    0.67738011    -0.58520000
opls_180-538    O    0.74978989    0.29826995    0.82261989    -0.58520000
opls_180-539    O    0.24978989    0.79826995    0.32261989    -0.58520000
opls_180-540    O    0.25021011    0.79826995    0.67738011    -0.58520000
opls_180-541    O    0.75021011    0.29826995    0.17738011    -0.58520000
opls_180-542    O    0.75021011    0.70173005    0.32261989    -0.58520000
opls_180-543    O    0.25021011    0.20173005    0.82261989    -0.58520000
opls_180-544    O    0.17738011    0.24978989    0.20173005    -0.58530000
opls_180-545    O    0.67738011    0.74978989    0.70173005    -0.58520000
opls_180-546    O    0.82261989    0.74978989    0.29826995    -0.58520000
opls_180-547    O    0.32261989    0.24978989    0.79826995    -0.58520000
opls_180-548    O    0.67738011    0.25021011    0.79826995    -0.58520000
opls_180-549    O    0.17738011    0.75021011    0.29826995    -0.58520000
opls_180-550    O    0.32261989    0.75021011    0.70173005    -0.58520000
opls_180-551    O    0.82261989    0.25021011    0.20173005    -0.58520000
opls_180-552    O    0.42737993    0.45172988    0.49979007    -0.58520000
opls_180-553    O    0.92737993    0.95172988    0.99979007    -0.58520000
opls_180-554    O    0.07262007    0.54827012    0.99979007    -0.58520000
opls_180-555    O    0.57262007    0.04827012    0.49979007    -0.58520000
opls_180-556    O    0.92737993    0.04827012    0.50020993    -0.58520000
opls_180-557    O    0.42737993    0.54827012    0.00020993    -0.58520000
opls_180-558    O    0.57262007    0.95172988    0.00020993    -0.58520000
opls_180-559    O    0.07262007    0.45172988    0.50020993    -0.58520000
opls_180-560    O    0.45172988    0.49979007    0.42737993    -0.58520000
opls_180-561    O    0.95172988    0.99979007    0.92737993    -0.58520000
opls_180-562    O    0.54827012    0.99979007    0.07262007    -0.58520000
opls_180-563    O    0.04827012    0.49979007    0.57262007    -0.58520000
opls_180-564    O    0.04827012    0.50020993    0.92737993    -0.58520000
opls_180-565    O    0.54827012    0.00020993    0.42737993    -0.58530000
opls_180-566    O    0.95172988    0.00020993    0.57262007    -0.58520000
opls_180-567    O    0.45172988    0.50020993    0.07262007    -0.58520000
opls_180-568    O    0.49979007    0.42737993    0.45172988    -0.58520000
opls_180-569    O    0.99979007    0.92737993    0.95172988    -0.58520000
opls_180-570    O    0.99979007    0.07262007    0.54827012    -0.58520000
opls_180-571    O    0.49979007    0.57262007    0.04827012    -0.58520000
opls_180-572    O    0.50020993    0.92737993    0.04827012    -0.58520000
opls_180-573    O    0.00020993    0.42737993    0.54827012    -0.58520000
opls_180-574    O    0.00020993    0.57262007    0.95172988    -0.58520000
opls_180-575    O    0.50020993    0.07262007    0.45172988    -0.58520000
MOF2_Si3-576    Si    0.37500009    0.00000000    0.24999982    0.66090000
MOF2_Si3-577    Si    0.12499991    0.00000000    0.74999982    0.66090000
MOF2_Si3-578    Si    0.62499991    0.50000000    0.24999982    0.66090000
MOF2_Si3-579    Si    0.87500009    0.50000000    0.74999982    0.66090000
MOF2_Si3-580    Si    0.24999982    0.37500009    0.00000000    0.66080000
MOF2_Si3-581    Si    0.74999982    0.12499991    0.00000000    0.66090000
MOF2_Si3-582    Si    0.24999982    0.62499991    0.50000000    0.66090000
MOF2_Si3-583    Si    0.74999982    0.87500009    0.50000000    0.66090000
MOF2_Si3-584    Si    0.00000000    0.24999982    0.37500009    0.66090000
MOF2_Si3-585    Si    0.00000000    0.74999982    0.12499991    0.66090000
MOF2_Si3-586    Si    0.50000000    0.24999982    0.62499991    0.66090000
MOF2_Si3-587    Si    0.50000000    0.74999982    0.87500009    0.66090000
