#======================================================================
# Crystal Data Generated By AuToFF
#----------------------------------------------------------------------

data_AuToFF_phase_1

_cell_length_a                         47.3185
_cell_length_b                         90.9704
_cell_length_c                         28.0119
_cell_angle_alpha                      90.00
_cell_angle_beta                       88.31
_cell_angle_gamma                      90.00
_symmetry_space_group_name_H-M_alt     'P 1'
_symmetry_space_group_IT_number        1

loop_
_space_group_symop_operation_xyz
   'x, y, z'

loop_
   _atom_site_label
   _atom_site_type_symbol
   _atom_site_fract_x
   _atom_site_fract_y
   _atom_site_fract_z
   _atom_site_charge
opls_700-0    C    0.61606999    0.73547000    0.92254021    0.06650000
opls_145-1    C    0.09241016    0.24089000    0.94808014    -0.12460000
opls_145-2    C    0.08181004    0.23335997    0.98821023    -0.12790000
opls_700-3    C    0.59477990    0.72030001    0.00296003    0.06260000
opls_145-4    C    0.61778012    0.71459002    0.97591009    -0.13090000
opls_145-5    C    0.62835014    0.72216996    0.93587000    -0.12400000
opls_700-6    C    0.58549008    0.71325002    0.04818018    0.06630000
opls_145-7    C    0.56784007    0.67858996    0.24579986    0.18650000
opls_145-8    C    0.05365013    0.18734995    0.28023989    -0.18390000
opls_145-9    C    0.04871004    0.18212001    0.32611004    -0.18360000
opls_916-10    C    0.55765006    0.66802004    0.33800017    0.16770000
opls_145-11    C    0.57245001    0.65934996    0.30422015    -0.17360000
opls_145-12    C    0.57788003    0.66470995    0.25831000    -0.16880000
opls_700-13    C    0.35661998    0.48620002    0.39782012    0.06660000
opls_145-14    C    0.85235997    0.97915003    0.44189989    -0.12950000
opls_145-15    C    0.83853004    0.96553000    0.44425992    -0.13300000
opls_700-16    C    0.82889002    0.95886002    0.40221017    0.06670000
opls_145-17    C    0.33240012    0.46644997    0.35862004    -0.12240000
opls_145-18    C    0.34624008    0.47990995    0.35646002    -0.13470000
opls_700-19    C    0.81607010    0.94394001    0.40256017    0.06600000
opls_145-20    C    0.26707996    0.37775002    0.40308018    0.18430000
opls_145-21    C    0.27607009    0.36556001    0.42762009    -0.20670000
opls_145-22    C    0.26374001    0.35207001    0.41982001    -0.17530000
opls_916-23    C    0.24192996    0.35070001    0.38731000    0.16100000
opls_145-24    C    0.73402005    0.86271996    0.35979005    -0.18240000
opls_145-25    C    0.74644003    0.87626997    0.36750014    -0.17920000
opls_141-26    C    0.14369997    0.25616003    0.88979021    -0.00410000
opls_700-27    C    0.14961004    0.26133995    0.93793003    0.07460000
opls_145-28    C    0.67165014    0.75511001    0.96285030    -0.13470000
opls_145-29    C    0.67874000    0.76075998    0.00698008    -0.12270000
opls_700-30    C    0.16377009    0.27276004    0.02751995    0.05940000
opls_145-31    C    0.14086998    0.27858996    0.00223002    -0.13200000
opls_145-32    C    0.13396013    0.27288997    0.95797025    -0.13300000
opls_700-33    C    0.17242996    0.27923995    0.07408011    0.05830000
opls_145-34    C    0.19731011    0.31714997    0.26248005    0.19090000
opls_145-35    C    0.72434000    0.82339003    0.26256005    -0.16810000
opls_145-36    C    0.73352999    0.83040000    0.30343015    -0.17570000
opls_916-37    C    0.21575004    0.33107000    0.34442988    0.15800000
opls_145-38    C    0.18843001    0.32507002    0.34348987    -0.16810000
opls_145-39    C    0.17919008    0.31826001    0.30249013    -0.19330000
opls_700-40    C    0.15594010    0.73537997    0.84985012    0.07440000
opls_145-41    C    0.67907002    0.24091001    0.82365019    -0.13940000
opls_145-42    C    0.68948014    0.23341999    0.78375011    -0.12240000
opls_700-43    C    0.17665996    0.72024999    0.76854994    0.05930000
opls_145-44    C    0.15426005    0.71439996    0.79737026    -0.12790000
opls_145-45    C    0.14407997    0.72193999    0.83746999    -0.13480000
opls_700-46    C    0.18591004    0.71311998    0.72252014    0.05940000
opls_145-47    C    0.20390999    0.67856995    0.52414009    0.18670000
opls_145-48    C    0.71792996    0.18766995    0.49032007    -0.18220000
opls_145-49    C    0.72412004    0.18252003    0.44483993    -0.17850000
opls_916-50    C    0.21653012    0.66823000    0.43275015    0.16100000
opls_145-51    C    0.20172001    0.65929995    0.46583016    -0.16990000
opls_145-52    C    0.19512000    0.66455001    0.51137995    -0.18970000
opls_700-53    C    0.41669014    0.48614000    0.37823990    0.06230000
opls_145-54    C    0.92088004    0.97912002    0.33406013    -0.13380000
opls_145-55    C    0.93470012    0.96547998    0.33155010    -0.13540000
opls_700-56    C    0.94431000    0.95881001    0.37345021    0.06150000
opls_145-57    C    0.44080994    0.46617999    0.41723998    -0.12270000
opls_145-58    C    0.42708011    0.47975001    0.41958000    -0.11820000
opls_700-59    C    0.95713011    0.94402003    0.37240019    0.05940000
opls_145-60    C    0.50662009    0.37785005    0.37091018    0.18780000
opls_145-61    C    0.49779000    0.36567004    0.34614990    -0.20660000
opls_145-62    C    0.51072011    0.35228998    0.35286998    -0.17980000
opls_916-63    C    0.53308999    0.35102000    0.38433997    0.16650000
opls_145-64    C    0.04090994    0.86300005    0.41210992    -0.19830000
opls_145-65    C    0.02780011    0.87645003    0.40560020    -0.17940000
opls_141-66    C    0.62845003    0.25608000    0.88243013    0.00170000
opls_700-67    C    0.62264004    0.26124003    0.83408995    0.07590000
opls_145-68    C    0.10095998    0.75484004    0.80869002    -0.13230000
opls_145-69    C    0.09379000    0.76052002    0.76461025    -0.12270000
opls_700-70    C    0.60844014    0.27269002    0.74447003    0.05930000
opls_145-71    C    0.63104007    0.27866998    0.77013996    -0.13310000
opls_145-72    C    0.63798007    0.27296000    0.81438009    -0.13810000
opls_700-73    C    0.59982014    0.27916003    0.69789023    0.05920000
opls_145-74    C    0.57665000    0.31682998    0.50841991    0.19180000
opls_145-75    C    0.05080001    0.82429999    0.50926992    -0.16840000
opls_145-76    C    0.04207995    0.83149002    0.46844019    -0.17690000
opls_916-77    C    0.55914005    0.33116003    0.42650008    0.16200000
opls_145-78    C    0.58532011    0.32387997    0.42645008    -0.17480000
opls_145-79    C    0.59410999    0.31685999    0.46742018    -0.18970000
opls_145-80    C    0.94095012    0.06831002    0.38665000    -0.12970000
opls_145-81    C    0.95324996    0.08224005    0.38688000    -0.12490000
opls_700-82    C    0.98179012    0.08370998    0.37364021    0.05930000
opls_145-83    C    0.99803008    0.07163000    0.36013006    -0.09570000
opls_145-84    C    0.98585008    0.05776000    0.35944005    -0.13060000
opls_142-85    C    0.99670006    0.09692999    0.38383996    0.10940000
opls_145-86    C    0.17958999    0.06536005    0.63735991    -0.12300000
opls_145-87    C    0.19168016    0.07917004    0.63815992    -0.17570000
opls_700-88    C    0.20819012    0.08391004    0.59939021    0.06010000
opls_145-89    C    0.21255006    0.07514005    0.55911012    -0.13020000
opls_145-90    C    0.20055000    0.06115000    0.55816011    -0.12970000
opls_142-91    C    0.22509014    0.09667002    0.60633993    0.11010000
opls_145-92    C    0.08242010    0.77124999    0.66668024    -0.12460000
opls_145-93    C    0.07388001    0.77742002    0.62415012    -0.08670000
opls_700-94    C    0.08278015    0.79147998    0.61115998    0.02800000
opls_145-95    C    0.10009009    0.79947005    0.64130996    -0.13810000
opls_145-96    C    0.10839011    0.79345996    0.68419007    -0.12730000
opls_142-97    C    0.07350996    0.79785996    0.56651020    0.06130000
opls_145-98    C    0.06003002    0.79470003    0.05145986    -0.12420000
opls_145-99    C    0.05124991    0.80105001    0.09470998    -0.13780000
opls_700-100    C    0.06787004    0.79953996    0.13450006    0.06030000
opls_145-101    C    0.09306998    0.79157001    0.13192003    -0.13130000
opls_145-102    C    0.10187995    0.78516001    0.08885991    -0.12280000
opls_142-103    C    0.05847006    0.80593995    0.17930020    0.09300000
opls_145-104    C    0.20345002    0.72075005    0.68894013    -0.13300000
opls_145-105    C    0.21180003    0.71430004    0.64626001    -0.17740000
opls_700-106    C    0.20265006    0.70023997    0.63556025    0.05750000
opls_145-107    C    0.18483997    0.69253999    0.66717024    -0.13940000
opls_145-108    C    0.17674003    0.69881995    0.71050001    -0.12240000
opls_142-109    C    0.21194014    0.69395001    0.59070011    0.11450000
opls_145-110    C    0.16343010    0.70657005    0.08822991    -0.12230000
opls_145-111    C    0.17181997    0.70054996    0.13106002    -0.13910000
opls_700-112    C    0.18962003    0.70842999    0.16069999    0.01420000
opls_145-113    C    0.19892005    0.72238003    0.14725984    -0.16030000
opls_145-114    C    0.19033009    0.72854995    0.10479009    -0.12400000
opls_142-115    C    0.19907004    0.70207001    0.20529013    0.07540000
opls_141-116    C    0.37269997    0.50000000    0.39413008    -0.00010000
opls_141-117    C    0.40061995    0.50000000    0.38200994    -0.00010000
opls_700-118    C    0.38393001    0.73547000    0.07746014    0.06650000
opls_145-119    C    0.90759006    0.24089000    0.05191986    -0.12460000
opls_145-120    C    0.91818995    0.23335997    0.01179013    -0.12790000
opls_700-121    C    0.40522010    0.72030001    0.99703997    0.06260000
opls_145-122    C    0.38222009    0.71459002    0.02408991    -0.13090000
opls_145-123    C    0.37165008    0.72216996    0.06413000    -0.12400000
opls_700-124    C    0.41451013    0.71325002    0.95182018    0.06630000
opls_145-125    C    0.43216014    0.67858996    0.75420014    0.18650000
opls_145-126    C    0.94635008    0.18734995    0.71976011    -0.18400000
opls_145-127    C    0.95128996    0.18212001    0.67388996    -0.18360000
opls_916-128    C    0.44235014    0.66802004    0.66200019    0.16770000
opls_145-129    C    0.42754999    0.65934996    0.69578020    -0.17360000
opls_145-130    C    0.42211997    0.66470995    0.74169000    -0.16880000
opls_700-131    C    0.64338002    0.48620002    0.60218024    0.06660000
opls_145-132    C    0.14764003    0.97915003    0.55810011    -0.12950000
opls_145-133    C    0.16146996    0.96553000    0.55574008    -0.13300000
opls_700-134    C    0.17110997    0.95886002    0.59779019    0.06670000
opls_145-135    C    0.66760009    0.46644997    0.64137996    -0.12240000
opls_145-136    C    0.65376014    0.47990995    0.64353998    -0.13480000
opls_700-137    C    0.18393010    0.94394001    0.59744019    0.06600000
opls_145-138    C    0.73292003    0.37775002    0.59692018    0.18430000
opls_145-139    C    0.72393013    0.36556001    0.57237991    -0.20670000
opls_145-140    C    0.73625999    0.35207001    0.58017999    -0.17530000
opls_916-141    C    0.75807004    0.35070001    0.61269000    0.16110000
opls_145-142    C    0.26597995    0.86271996    0.64020995    -0.18240000
opls_145-143    C    0.25355996    0.87626997    0.63250022    -0.17920000
opls_141-144    C    0.85630003    0.25616003    0.11021015    -0.00410000
opls_700-145    C    0.85038996    0.26133995    0.06206997    0.07460000
opls_145-146    C    0.32835006    0.75511001    0.03715005    -0.13470000
opls_145-147    C    0.32126000    0.76075998    0.99302028    -0.12460000
opls_700-148    C    0.83623012    0.27276004    0.97248005    0.05930000
opls_145-149    C    0.85913002    0.27858996    0.99776998    -0.13200000
opls_145-150    C    0.86604008    0.27288997    0.04203011    -0.13320000
opls_700-151    C    0.82757004    0.27923995    0.92592025    0.05830000
opls_145-152    C    0.80269010    0.31714997    0.73751995    0.19090000
opls_145-153    C    0.27566000    0.82339003    0.73743995    -0.16800000
opls_145-154    C    0.26647000    0.83040000    0.69657021    -0.17570000
opls_916-155    C    0.78424996    0.33107000    0.65557012    0.15810000
opls_145-156    C    0.81156999    0.32507002    0.65651013    -0.16800000
opls_145-157    C    0.82081012    0.31826001    0.69751022    -0.19330000
opls_700-158    C    0.84406012    0.73537997    0.15014988    0.07440000
opls_145-159    C    0.32092997    0.24091001    0.17635017    -0.13940000
opls_145-160    C    0.31052007    0.23341999    0.21624989    -0.12240000
opls_700-161    C    0.82334004    0.72024999    0.23145006    0.05930000
opls_145-162    C    0.84573994    0.71439996    0.20263010    -0.12780000
opls_145-163    C    0.85592003    0.72193999    0.16253001    -0.13480000
opls_700-164    C    0.81408995    0.71311998    0.27748021    0.05940000
opls_145-165    C    0.79609001    0.67856995    0.47585991    0.18680000
opls_145-166    C    0.28207004    0.18766995    0.50967993    -0.18220000
opls_145-167    C    0.27587996    0.18252003    0.55516007    -0.17860000
opls_916-168    C    0.78347008    0.66823000    0.56725021    0.16100000
opls_145-169    C    0.79827998    0.65929995    0.53417020    -0.16990000
opls_145-170    C    0.80488000    0.66455001    0.48862005    -0.18970000
opls_700-171    C    0.58331007    0.48614000    0.62176010    0.06230000
opls_145-172    C    0.07911995    0.97912002    0.66594023    -0.13380000
opls_145-173    C    0.06530008    0.96547998    0.66845026    -0.13540000
opls_700-174    C    0.05568999    0.95881001    0.62655015    0.06150000
opls_145-175    C    0.55919006    0.46617999    0.58276002    -0.12270000
opls_145-176    C    0.57292010    0.47975001    0.58042000    -0.11820000
opls_700-177    C    0.04287010    0.94402003    0.62760016    0.05940000
opls_145-178    C    0.49338011    0.37785005    0.62909018    0.18790000
opls_145-179    C    0.50221000    0.36567004    0.65385010    -0.20670000
opls_145-180    C    0.48928010    0.35228998    0.64713002    -0.17980000
opls_916-181    C    0.46691001    0.35102000    0.61566003    0.16650000
opls_145-182    C    0.95909006    0.86300005    0.58789008    -0.19830000
opls_145-183    C    0.97220010    0.87645003    0.59440015    -0.17940000
opls_141-184    C    0.37154997    0.25608000    0.11756987    0.00170000
opls_700-185    C    0.37735996    0.26124003    0.16591005    0.07590000
opls_145-186    C    0.89904002    0.75484004    0.19130998    -0.13230000
opls_145-187    C    0.90621000    0.76052002    0.23539011    -0.12270000
opls_700-188    C    0.39156007    0.27269002    0.25552997    0.05930000
opls_145-189    C    0.36895993    0.27866998    0.22986004    -0.13310000
opls_145-190    C    0.36201993    0.27296000    0.18561991    -0.13790000
opls_700-191    C    0.40018006    0.27916003    0.30211013    0.05920000
opls_145-192    C    0.42335000    0.31682998    0.49158009    0.19180000
opls_145-193    C    0.94919999    0.82429999    0.49073008    -0.16830000
opls_145-194    C    0.95792004    0.83149002    0.53156017    -0.17690000
opls_916-195    C    0.44085995    0.33116003    0.57349992    0.16200000
opls_145-196    C    0.41468010    0.32387997    0.57354992    -0.17480000
opls_145-197    C    0.40589000    0.31685999    0.53258018    -0.18960000
opls_145-198    C    0.05905009    0.06831002    0.61335000    -0.12970000
opls_145-199    C    0.04675004    0.08224005    0.61312000    -0.12490000
opls_700-200    C    0.01821009    0.08370998    0.62636015    0.05930000
opls_145-201    C    0.00197013    0.07163000    0.63986994    -0.09580000
opls_145-202    C    0.01415013    0.05776000    0.64055995    -0.13060000
opls_142-203    C    0.00330015    0.09692999    0.61616004    0.10940000
opls_145-204    C    0.82041001    0.06536005    0.36264009    -0.12300000
opls_145-205    C    0.80832006    0.07917004    0.36184008    -0.17560000
opls_700-206    C    0.79181008    0.08391004    0.40061015    0.06010000
opls_145-207    C    0.78744994    0.07514005    0.44089024    -0.13020000
opls_145-208    C    0.79945000    0.06115000    0.44183989    -0.12970000
opls_142-209    C    0.77491007    0.09667002    0.39366007    0.11010000
opls_145-210    C    0.91758011    0.77124999    0.33332012    -0.12460000
opls_145-211    C    0.92611999    0.77742002    0.37584988    -0.08660000
opls_700-212    C    0.91722006    0.79147998    0.38884002    0.02790000
opls_145-213    C    0.89991012    0.79947005    0.35869004    -0.13810000
opls_145-214    C    0.89161010    0.79345996    0.31580993    -0.12730000
opls_142-215    C    0.92649003    0.79785996    0.43349016    0.06130000
opls_145-216    C    0.93996998    0.79470003    0.94854014    -0.12420000
opls_145-217    C    0.94875009    0.80105001    0.90529002    -0.13780000
opls_700-218    C    0.93213017    0.79953996    0.86549994    0.06030000
opls_145-219    C    0.90693002    0.79157001    0.86807997    -0.13120000
opls_145-220    C    0.89812005    0.78516001    0.91114009    -0.12290000
opls_142-221    C    0.94153014    0.80593995    0.82070016    0.09300000
opls_145-222    C    0.79654998    0.72075005    0.31105987    -0.13300000
opls_145-223    C    0.78819997    0.71430004    0.35373999    -0.17730000
opls_700-224    C    0.79734993    0.70023997    0.36444011    0.05750000
opls_145-225    C    0.81516002    0.69253999    0.33283011    -0.13940000
opls_145-226    C    0.82325997    0.69881995    0.28949999    -0.12240000
opls_142-227    C    0.78806007    0.69395001    0.40929989    0.11450000
opls_145-228    C    0.83657011    0.70657005    0.91177009    -0.12240000
opls_145-229    C    0.82818003    0.70054996    0.86893998    -0.13910000
opls_700-230    C    0.81037997    0.70842999    0.83930001    0.01420000
opls_145-231    C    0.80108017    0.72238003    0.85274016    -0.16030000
opls_145-232    C    0.80967012    0.72854995    0.89521027    -0.12400000
opls_142-233    C    0.80093016    0.70207001    0.79471023    0.07540000
opls_141-234    C    0.62730003    0.50000000    0.60586992    -0.00010000
opls_141-235    C    0.59938005    0.50000000    0.61799006    -0.00010000
opls_700-236    C    0.38393001    0.26453000    0.07746014    0.06650000
opls_145-237    C    0.90759006    0.75911000    0.05191986    -0.12460000
opls_145-238    C    0.91818995    0.76664003    0.01179013    -0.12790000
opls_700-239    C    0.40522010    0.27969999    0.99703997    0.06260000
opls_145-240    C    0.38222009    0.28540998    0.02408991    -0.13090000
opls_145-241    C    0.37165008    0.27783004    0.06413000    -0.12400000
opls_700-242    C    0.41451013    0.28674998    0.95182018    0.06630000
opls_145-243    C    0.43216014    0.32141004    0.75420014    0.18650000
opls_145-244    C    0.94635008    0.81265005    0.71976011    -0.18400000
opls_145-245    C    0.95128996    0.81787999    0.67388996    -0.18350000
opls_916-246    C    0.44235014    0.33197996    0.66200019    0.16770000
opls_145-247    C    0.42754999    0.34065004    0.69578020    -0.17360000
opls_145-248    C    0.42211997    0.33529005    0.74169000    -0.16880000
opls_700-249    C    0.64338002    0.51379998    0.60218024    0.06660000
opls_145-250    C    0.14764003    0.02084997    0.55810011    -0.12950000
opls_145-251    C    0.16146996    0.03447000    0.55574008    -0.13300000
opls_700-252    C    0.17110997    0.04113998    0.59779019    0.06670000
opls_145-253    C    0.66760009    0.53355003    0.64137996    -0.12240000
opls_145-254    C    0.65376014    0.52009005    0.64353998    -0.13480000
opls_700-255    C    0.18393010    0.05605999    0.59744019    0.06600000
opls_145-256    C    0.73292003    0.62224998    0.59692018    0.18430000
opls_145-257    C    0.72393013    0.63443999    0.57237991    -0.20670000
opls_145-258    C    0.73625999    0.64792999    0.58017999    -0.17530000
opls_916-259    C    0.75807004    0.64929999    0.61269000    0.16110000
opls_145-260    C    0.26597995    0.13728004    0.64020995    -0.18240000
opls_145-261    C    0.25355996    0.12373003    0.63250022    -0.17910000
opls_141-262    C    0.85630003    0.74383997    0.11021015    -0.00410000
opls_700-263    C    0.85038996    0.73866005    0.06206997    0.07460000
opls_145-264    C    0.32835006    0.24488999    0.03715005    -0.13470000
opls_145-265    C    0.32126000    0.23924002    0.99302028    -0.12450000
opls_700-266    C    0.83623012    0.72723996    0.97248005    0.05930000
opls_145-267    C    0.85913002    0.72141004    0.99776998    -0.13200000
opls_145-268    C    0.86604008    0.72711003    0.04203011    -0.13320000
opls_700-269    C    0.82757004    0.72076005    0.92592025    0.05830000
opls_145-270    C    0.80269010    0.68285003    0.73751995    0.19090000
opls_145-271    C    0.27566000    0.17660997    0.73743995    -0.16810000
opls_145-272    C    0.26647000    0.16960000    0.69657021    -0.17570000
opls_916-273    C    0.78424996    0.66893000    0.65557012    0.15800000
opls_145-274    C    0.81156999    0.67492998    0.65651013    -0.16810000
opls_145-275    C    0.82081012    0.68173999    0.69751022    -0.19330000
opls_700-276    C    0.84406012    0.26462003    0.15014988    0.07440000
opls_145-277    C    0.32092997    0.75908999    0.17635017    -0.13940000
opls_145-278    C    0.31052007    0.76658001    0.21624989    -0.12230000
opls_700-279    C    0.82334004    0.27975001    0.23145006    0.05930000
opls_145-280    C    0.84573994    0.28560004    0.20263010    -0.12790000
opls_145-281    C    0.85592003    0.27806001    0.16253001    -0.13480000
opls_700-282    C    0.81408995    0.28688002    0.27748021    0.05940000
opls_145-283    C    0.79609001    0.32143005    0.47585991    0.18670000
opls_145-284    C    0.28207004    0.81233005    0.50967993    -0.18220000
opls_145-285    C    0.27587996    0.81747997    0.55516007    -0.17860000
opls_916-286    C    0.78347008    0.33177000    0.56725021    0.16100000
opls_145-287    C    0.79827998    0.34070005    0.53417020    -0.16990000
opls_145-288    C    0.80488000    0.33544999    0.48862005    -0.18970000
opls_700-289    C    0.58331007    0.51386000    0.62176010    0.06230000
opls_145-290    C    0.07911995    0.02087998    0.66594023    -0.13380000
opls_145-291    C    0.06530008    0.03452002    0.66845026    -0.13540000
opls_700-292    C    0.05568999    0.04118999    0.62655015    0.06150000
opls_145-293    C    0.55919006    0.53382001    0.58276002    -0.12270000
opls_145-294    C    0.57292010    0.52024999    0.58042000    -0.11820000
opls_700-295    C    0.04287010    0.05597997    0.62760016    0.05940000
opls_145-296    C    0.49338011    0.62214995    0.62909018    0.18780000
opls_145-297    C    0.50221000    0.63432996    0.65385010    -0.20660000
opls_145-298    C    0.48928010    0.64771002    0.64713002    -0.17980000
opls_916-299    C    0.46691001    0.64898000    0.61566003    0.16650000
opls_145-300    C    0.95909006    0.13699995    0.58789008    -0.19830000
opls_145-301    C    0.97220010    0.12354997    0.59440015    -0.17940000
opls_141-302    C    0.37154997    0.74392000    0.11756987    0.00170000
opls_700-303    C    0.37735996    0.73875997    0.16591005    0.07590000
opls_145-304    C    0.89904002    0.24515996    0.19130998    -0.13230000
opls_145-305    C    0.90621000    0.23947998    0.23539011    -0.12270000
opls_700-306    C    0.39156007    0.72730998    0.25552997    0.05930000
opls_145-307    C    0.36895993    0.72133002    0.22986004    -0.13310000
opls_145-308    C    0.36201993    0.72704000    0.18561991    -0.13810000
opls_700-309    C    0.40018006    0.72083997    0.30211013    0.05920000
opls_145-310    C    0.42335000    0.68317002    0.49158009    0.19180000
opls_145-311    C    0.94919999    0.17570001    0.49073008    -0.16840000
opls_145-312    C    0.95792004    0.16850998    0.53156017    -0.17690000
opls_916-313    C    0.44085995    0.66883997    0.57349992    0.16200000
opls_145-314    C    0.41468010    0.67612003    0.57354992    -0.17480000
opls_145-315    C    0.40589000    0.68314001    0.53258018    -0.18970000
opls_145-316    C    0.05905009    0.93168998    0.61335000    -0.12960000
opls_145-317    C    0.04675004    0.91775995    0.61312000    -0.12490000
opls_700-318    C    0.01821009    0.91629002    0.62636015    0.05930000
opls_145-319    C    0.00197013    0.92837000    0.63986994    -0.09580000
opls_145-320    C    0.01415013    0.94224000    0.64055995    -0.13060000
opls_142-321    C    0.00330015    0.90307001    0.61616004    0.10940000
opls_145-322    C    0.82041001    0.93463995    0.36264009    -0.12290000
opls_145-323    C    0.80832006    0.92082996    0.36184008    -0.17570000
opls_700-324    C    0.79181008    0.91608996    0.40061015    0.06010000
opls_145-325    C    0.78744994    0.92485995    0.44089024    -0.13020000
opls_145-326    C    0.79945000    0.93885000    0.44183989    -0.12970000
opls_142-327    C    0.77491007    0.90332998    0.39366007    0.11010000
opls_145-328    C    0.91758011    0.22875001    0.33332012    -0.12460000
opls_145-329    C    0.92611999    0.22257998    0.37584988    -0.08670000
opls_700-330    C    0.91722006    0.20852002    0.38884002    0.02790000
opls_145-331    C    0.89991012    0.20052995    0.35869004    -0.13810000
opls_145-332    C    0.89161010    0.20654004    0.31580993    -0.12730000
opls_142-333    C    0.92649003    0.20214004    0.43349016    0.06130000
opls_145-334    C    0.93996998    0.20529997    0.94854014    -0.12420000
opls_145-335    C    0.94875009    0.19894999    0.90529002    -0.13780000
opls_700-336    C    0.93213017    0.20046004    0.86549994    0.06030000
opls_145-337    C    0.90693002    0.20842999    0.86807997    -0.13130000
opls_145-338    C    0.89812005    0.21483999    0.91114009    -0.12290000
opls_142-339    C    0.94153014    0.19406005    0.82070016    0.09310000
opls_145-340    C    0.79654998    0.27924995    0.31105987    -0.13300000
opls_145-341    C    0.78819997    0.28569996    0.35373999    -0.17730000
opls_700-342    C    0.79734993    0.29976003    0.36444011    0.05750000
opls_145-343    C    0.81516002    0.30746001    0.33283011    -0.13940000
opls_145-344    C    0.82325997    0.30118005    0.28949999    -0.12240000
opls_142-345    C    0.78806007    0.30604999    0.40929989    0.11450000
opls_145-346    C    0.83657011    0.29342995    0.91177009    -0.12240000
opls_145-347    C    0.82818003    0.29945004    0.86893998    -0.13910000
opls_700-348    C    0.81037997    0.29157001    0.83930001    0.01420000
opls_145-349    C    0.80108017    0.27761997    0.85274016    -0.16030000
opls_145-350    C    0.80967012    0.27145005    0.89521027    -0.12410000
opls_142-351    C    0.80093016    0.29792999    0.79471023    0.07540000
opls_700-352    C    0.61606999    0.26453000    0.92254021    0.06650000
opls_145-353    C    0.09241016    0.75911000    0.94808014    -0.12460000
opls_145-354    C    0.08181004    0.76664003    0.98821023    -0.12790000
opls_700-355    C    0.59477990    0.27969999    0.00296003    0.06260000
opls_145-356    C    0.61778012    0.28540998    0.97591009    -0.13090000
opls_145-357    C    0.62835014    0.27783004    0.93587000    -0.12400000
opls_700-358    C    0.58549008    0.28674998    0.04818018    0.06630000
opls_145-359    C    0.56784007    0.32141004    0.24579986    0.18650000
opls_145-360    C    0.05365013    0.81265005    0.28023989    -0.18400000
opls_145-361    C    0.04871004    0.81787999    0.32611004    -0.18360000
opls_916-362    C    0.55765006    0.33197996    0.33800017    0.16770000
opls_145-363    C    0.57245001    0.34065004    0.30422015    -0.17350000
opls_145-364    C    0.57788003    0.33529005    0.25831000    -0.16870000
opls_700-365    C    0.35661998    0.51379998    0.39782012    0.06660000
opls_145-366    C    0.85235997    0.02084997    0.44189989    -0.12950000
opls_145-367    C    0.83853004    0.03447000    0.44425992    -0.13300000
opls_700-368    C    0.82889002    0.04113998    0.40221017    0.06670000
opls_145-369    C    0.33240012    0.53355003    0.35862004    -0.12240000
opls_145-370    C    0.34624008    0.52009005    0.35646002    -0.13480000
opls_700-371    C    0.81607010    0.05605999    0.40256017    0.06600000
opls_145-372    C    0.26707996    0.62224998    0.40308018    0.18430000
opls_145-373    C    0.27607009    0.63443999    0.42762009    -0.20670000
opls_145-374    C    0.26374001    0.64792999    0.41982001    -0.17530000
opls_916-375    C    0.24192996    0.64929999    0.38731000    0.16100000
opls_145-376    C    0.73402005    0.13728004    0.35979005    -0.18240000
opls_145-377    C    0.74644003    0.12373003    0.36750014    -0.17920000
opls_141-378    C    0.14369997    0.74383997    0.88979021    -0.00410000
opls_700-379    C    0.14961004    0.73866005    0.93793003    0.07460000
opls_145-380    C    0.67165014    0.24488999    0.96285030    -0.13470000
opls_145-381    C    0.67874000    0.23924002    0.00698008    -0.12290000
opls_700-382    C    0.16377009    0.72723996    0.02751995    0.05930000
opls_145-383    C    0.14086998    0.72141004    0.00223002    -0.13200000
opls_145-384    C    0.13396013    0.72711003    0.95797025    -0.13320000
opls_700-385    C    0.17242996    0.72076005    0.07408011    0.05830000
opls_145-386    C    0.19731011    0.68285003    0.26248005    0.19090000
opls_145-387    C    0.72434000    0.17660997    0.26256005    -0.16810000
opls_145-388    C    0.73352999    0.16960000    0.30343015    -0.17570000
opls_916-389    C    0.21575004    0.66893000    0.34442988    0.15800000
opls_145-390    C    0.18843001    0.67492998    0.34348987    -0.16810000
opls_145-391    C    0.17919008    0.68173999    0.30249013    -0.19330000
opls_700-392    C    0.15594010    0.26462003    0.84985012    0.07440000
opls_145-393    C    0.67907002    0.75908999    0.82365019    -0.13940000
opls_145-394    C    0.68948014    0.76658001    0.78375011    -0.12240000
opls_700-395    C    0.17665996    0.27975001    0.76854994    0.05930000
opls_145-396    C    0.15426005    0.28560004    0.79737026    -0.12780000
opls_145-397    C    0.14407997    0.27806001    0.83746999    -0.13480000
opls_700-398    C    0.18591004    0.28688002    0.72252014    0.05940000
opls_145-399    C    0.20390999    0.32143005    0.52414009    0.18670000
opls_145-400    C    0.71792996    0.81233005    0.49032007    -0.18220000
opls_145-401    C    0.72412004    0.81747997    0.44483993    -0.17860000
opls_916-402    C    0.21653012    0.33177000    0.43275015    0.16110000
opls_145-403    C    0.20172001    0.34070005    0.46583016    -0.16990000
opls_145-404    C    0.19512000    0.33544999    0.51137995    -0.18970000
opls_700-405    C    0.41669014    0.51386000    0.37823990    0.06230000
opls_145-406    C    0.92088004    0.02087998    0.33406013    -0.13380000
opls_145-407    C    0.93470012    0.03452002    0.33155010    -0.13540000
opls_700-408    C    0.94431000    0.04118999    0.37345021    0.06150000
opls_145-409    C    0.44080994    0.53382001    0.41723998    -0.12270000
opls_145-410    C    0.42708011    0.52024999    0.41958000    -0.11810000
opls_700-411    C    0.95713011    0.05597997    0.37240019    0.05940000
opls_145-412    C    0.50662009    0.62214995    0.37091018    0.18780000
opls_145-413    C    0.49779000    0.63432996    0.34614990    -0.20670000
opls_145-414    C    0.51072011    0.64771002    0.35286998    -0.17980000
opls_916-415    C    0.53308999    0.64898000    0.38433997    0.16650000
opls_145-416    C    0.04090994    0.13699995    0.41210992    -0.19830000
opls_145-417    C    0.02780011    0.12354997    0.40560020    -0.17940000
opls_141-418    C    0.62845003    0.74392000    0.88243013    0.00170000
opls_700-419    C    0.62264004    0.73875997    0.83408995    0.07590000
opls_145-420    C    0.10095998    0.24515996    0.80869002    -0.13230000
opls_145-421    C    0.09379000    0.23947998    0.76461025    -0.12270000
opls_700-422    C    0.60844014    0.72730998    0.74447003    0.05930000
opls_145-423    C    0.63104007    0.72133002    0.77013996    -0.13310000
opls_145-424    C    0.63798007    0.72704000    0.81438009    -0.13810000
opls_700-425    C    0.59982014    0.72083997    0.69789023    0.05920000
opls_145-426    C    0.57665000    0.68317002    0.50841991    0.19180000
opls_145-427    C    0.05080001    0.17570001    0.50926992    -0.16830000
opls_145-428    C    0.04207995    0.16850998    0.46844019    -0.17680000
opls_916-429    C    0.55914005    0.66883997    0.42650008    0.16200000
opls_145-430    C    0.58532011    0.67612003    0.42645008    -0.17480000
opls_145-431    C    0.59410999    0.68314001    0.46742018    -0.18970000
opls_145-432    C    0.94095012    0.93168998    0.38665000    -0.12970000
opls_145-433    C    0.95324996    0.91775995    0.38688000    -0.12490000
opls_700-434    C    0.98179012    0.91629002    0.37364021    0.05930000
opls_145-435    C    0.99803008    0.92837000    0.36013006    -0.09570000
opls_145-436    C    0.98585008    0.94224000    0.35944005    -0.13060000
opls_142-437    C    0.99670006    0.90307001    0.38383996    0.10940000
opls_145-438    C    0.17958999    0.93463995    0.63735991    -0.12300000
opls_145-439    C    0.19168016    0.92082996    0.63815992    -0.17570000
opls_700-440    C    0.20819012    0.91608996    0.59939021    0.06010000
opls_145-441    C    0.21255006    0.92485995    0.55911012    -0.13020000
opls_145-442    C    0.20055000    0.93885000    0.55816011    -0.12970000
opls_142-443    C    0.22509014    0.90332998    0.60633993    0.11010000
opls_145-444    C    0.08242010    0.22875001    0.66668024    -0.12460000
opls_145-445    C    0.07388001    0.22257998    0.62415012    -0.08670000
opls_700-446    C    0.08278015    0.20852002    0.61115998    0.02790000
opls_145-447    C    0.10009009    0.20052995    0.64130996    -0.13810000
opls_145-448    C    0.10839011    0.20654004    0.68419007    -0.12730000
opls_142-449    C    0.07350996    0.20214004    0.56651020    0.06130000
opls_145-450    C    0.06003002    0.20529997    0.05145986    -0.12420000
opls_145-451    C    0.05124991    0.19894999    0.09470998    -0.13780000
opls_700-452    C    0.06787004    0.20046004    0.13450006    0.06030000
opls_145-453    C    0.09306998    0.20842999    0.13192003    -0.13130000
opls_145-454    C    0.10187995    0.21483999    0.08885991    -0.12290000
opls_142-455    C    0.05847006    0.19406005    0.17930020    0.09300000
opls_145-456    C    0.20345002    0.27924995    0.68894013    -0.13300000
opls_145-457    C    0.21180003    0.28569996    0.64626001    -0.17740000
opls_700-458    C    0.20265006    0.29976003    0.63556025    0.05760000
opls_145-459    C    0.18483997    0.30746001    0.66717024    -0.13940000
opls_145-460    C    0.17674003    0.30118005    0.71050001    -0.12240000
opls_142-461    C    0.21194014    0.30604999    0.59070011    0.11450000
opls_145-462    C    0.16343010    0.29342995    0.08822991    -0.12240000
opls_145-463    C    0.17181997    0.29945004    0.13106002    -0.13910000
opls_700-464    C    0.18962003    0.29157001    0.16069999    0.01420000
opls_145-465    C    0.19892005    0.27761997    0.14725984    -0.16030000
opls_145-466    C    0.19033009    0.27145005    0.10479009    -0.12410000
opls_142-467    C    0.19907004    0.29792999    0.20529013    0.07540000
opls_700-468    C    0.11606999    0.23547000    0.92254021    0.06650000
opls_145-469    C    0.59241016    0.74089000    0.94808014    -0.12460000
opls_145-470    C    0.58181004    0.73335997    0.98821023    -0.12790000
opls_700-471    C    0.09477990    0.22030001    0.00296003    0.06270000
opls_145-472    C    0.11778012    0.21459002    0.97591009    -0.13080000
opls_145-473    C    0.12835014    0.22216996    0.93587000    -0.12400000
opls_700-474    C    0.08549008    0.21325002    0.04818018    0.06630000
opls_145-475    C    0.06784007    0.17858996    0.24579986    0.18650000
opls_145-476    C    0.55365013    0.68734995    0.28023989    -0.18400000
opls_145-477    C    0.54871004    0.68212001    0.32611004    -0.18360000
opls_916-478    C    0.05765006    0.16802004    0.33800017    0.16770000
opls_145-479    C    0.07245001    0.15934996    0.30422015    -0.17360000
opls_145-480    C    0.07788003    0.16470995    0.25831000    -0.16870000
opls_700-481    C    0.85661998    0.98620002    0.39782012    0.06660000
opls_145-482    C    0.35235997    0.47915003    0.44189989    -0.12950000
opls_145-483    C    0.33853004    0.46553000    0.44425992    -0.13290000
opls_700-484    C    0.32889002    0.45886002    0.40221017    0.06680000
opls_145-485    C    0.83240012    0.96644997    0.35862004    -0.12240000
opls_145-486    C    0.84624008    0.97990995    0.35646002    -0.13480000
opls_700-487    C    0.31607010    0.44394001    0.40256017    0.06600000
opls_145-488    C    0.76707996    0.87775002    0.40308018    0.18430000
opls_145-489    C    0.77607009    0.86556001    0.42762009    -0.20660000
opls_145-490    C    0.76374001    0.85207001    0.41982001    -0.17530000
opls_916-491    C    0.74192996    0.85070001    0.38731000    0.16100000
opls_145-492    C    0.23402005    0.36271996    0.35979005    -0.18240000
opls_145-493    C    0.24644003    0.37626997    0.36750014    -0.17920000
opls_141-494    C    0.64369997    0.75616003    0.88979021    -0.00410000
opls_700-495    C    0.64961004    0.76133995    0.93793003    0.07460000
opls_145-496    C    0.17165014    0.25511001    0.96285030    -0.13470000
opls_145-497    C    0.17874000    0.26075998    0.00698008    -0.12290000
opls_700-498    C    0.66377009    0.77276004    0.02751995    0.05930000
opls_145-499    C    0.64086998    0.77858996    0.00223002    -0.13200000
opls_145-500    C    0.63396013    0.77288997    0.95797025    -0.13320000
opls_700-501    C    0.67242996    0.77923995    0.07408011    0.05830000
opls_145-502    C    0.69731011    0.81714997    0.26248005    0.19090000
opls_145-503    C    0.22434000    0.32339003    0.26256005    -0.16810000
opls_145-504    C    0.23352999    0.33040000    0.30343015    -0.17570000
opls_916-505    C    0.71575004    0.83107000    0.34442988    0.15800000
opls_145-506    C    0.68843001    0.82507002    0.34348987    -0.16810000
opls_145-507    C    0.67919008    0.81826001    0.30249013    -0.19330000
opls_700-508    C    0.65594010    0.23537997    0.84985012    0.07440000
opls_145-509    C    0.17907002    0.74091001    0.82365019    -0.13940000
opls_145-510    C    0.18948014    0.73341999    0.78375011    -0.12230000
opls_700-511    C    0.67665996    0.22024999    0.76854994    0.05930000
opls_145-512    C    0.65426005    0.21439996    0.79737026    -0.12790000
opls_145-513    C    0.64407997    0.22193999    0.83746999    -0.13480000
opls_700-514    C    0.68591004    0.21311998    0.72252014    0.05940000
opls_145-515    C    0.70390999    0.17856995    0.52414009    0.18680000
opls_145-516    C    0.21792996    0.68766995    0.49032007    -0.18210000
opls_145-517    C    0.22412004    0.68252003    0.44483993    -0.17860000
opls_916-518    C    0.71653012    0.16823000    0.43275015    0.16100000
opls_145-519    C    0.70172001    0.15929995    0.46583016    -0.16990000
opls_145-520    C    0.69512000    0.16455001    0.51137995    -0.18970000
opls_700-521    C    0.91669014    0.98614000    0.37823990    0.06230000
opls_145-522    C    0.42088004    0.47912002    0.33406013    -0.13380000
opls_145-523    C    0.43470012    0.46547998    0.33155010    -0.13540000
opls_700-524    C    0.44431000    0.45881001    0.37345021    0.06150000
opls_145-525    C    0.94080994    0.96617999    0.41723998    -0.12270000
opls_145-526    C    0.92708011    0.97975001    0.41958000    -0.11820000
opls_700-527    C    0.45713011    0.44402003    0.37240019    0.05940000
opls_145-528    C    0.00662009    0.87785005    0.37091018    0.18780000
opls_145-529    C    0.99779000    0.86567004    0.34614990    -0.20670000
opls_145-530    C    0.01072011    0.85228998    0.35286998    -0.17980000
opls_916-531    C    0.03308999    0.85102000    0.38433997    0.16650000
opls_145-532    C    0.54090994    0.36300005    0.41210992    -0.19830000
opls_145-533    C    0.52780011    0.37645003    0.40560020    -0.17940000
opls_141-534    C    0.12845003    0.75608000    0.88243013    0.00170000
opls_700-535    C    0.12264004    0.76124003    0.83408995    0.07590000
opls_145-536    C    0.60095998    0.25484004    0.80869002    -0.13230000
opls_145-537    C    0.59379000    0.26052002    0.76461025    -0.12270000
opls_700-538    C    0.10844014    0.77269002    0.74447003    0.05930000
opls_145-539    C    0.13104007    0.77866998    0.77013996    -0.13310000
opls_145-540    C    0.13798007    0.77296000    0.81438009    -0.13810000
opls_700-541    C    0.09982014    0.77916003    0.69789023    0.05920000
opls_145-542    C    0.07665000    0.81682998    0.50841991    0.19180000
opls_145-543    C    0.55080001    0.32429999    0.50926992    -0.16840000
opls_145-544    C    0.54207995    0.33149002    0.46844019    -0.17690000
opls_916-545    C    0.05914005    0.83116003    0.42650008    0.16200000
opls_145-546    C    0.08532011    0.82387997    0.42645008    -0.17480000
opls_145-547    C    0.09410999    0.81685999    0.46742018    -0.18970000
opls_145-548    C    0.44095012    0.56831002    0.38665000    -0.12970000
opls_145-549    C    0.45324996    0.58224005    0.38688000    -0.12490000
opls_700-550    C    0.48179012    0.58370998    0.37364021    0.05930000
opls_145-551    C    0.49803008    0.57163000    0.36013006    -0.09580000
opls_145-552    C    0.48585008    0.55776000    0.35944005    -0.13060000
opls_142-553    C    0.49670006    0.59692999    0.38383996    0.10940000
opls_145-554    C    0.67958999    0.56536005    0.63735991    -0.12300000
opls_145-555    C    0.69168016    0.57917004    0.63815992    -0.17570000
opls_700-556    C    0.70819012    0.58391004    0.59939021    0.06010000
opls_145-557    C    0.71255006    0.57514005    0.55911012    -0.13010000
opls_145-558    C    0.70055000    0.56115000    0.55816011    -0.12970000
opls_142-559    C    0.72509014    0.59667002    0.60633993    0.11010000
opls_145-560    C    0.58242010    0.27124999    0.66668024    -0.12460000
opls_145-561    C    0.57388001    0.27742002    0.62415012    -0.08670000
opls_700-562    C    0.58278015    0.29147998    0.61115998    0.02790000
opls_145-563    C    0.60009009    0.29947005    0.64130996    -0.13810000
opls_145-564    C    0.60839011    0.29345996    0.68419007    -0.12730000
opls_142-565    C    0.57350996    0.29785996    0.56651020    0.06130000
opls_145-566    C    0.56003002    0.29470003    0.05145986    -0.12420000
opls_145-567    C    0.55124991    0.30105001    0.09470998    -0.13780000
opls_700-568    C    0.56787004    0.29953996    0.13450006    0.06030000
opls_145-569    C    0.59306998    0.29157001    0.13192003    -0.13130000
opls_145-570    C    0.60187995    0.28516001    0.08885991    -0.12290000
opls_142-571    C    0.55847006    0.30593995    0.17930020    0.09300000
opls_145-572    C    0.70345002    0.22075005    0.68894013    -0.13300000
opls_145-573    C    0.71180003    0.21430004    0.64626001    -0.17740000
opls_700-574    C    0.70265006    0.20023997    0.63556025    0.05750000
opls_145-575    C    0.68483997    0.19253999    0.66717024    -0.13940000
opls_145-576    C    0.67674003    0.19881995    0.71050001    -0.12240000
opls_142-577    C    0.71194014    0.19395001    0.59070011    0.11450000
opls_145-578    C    0.66343010    0.20657005    0.08822991    -0.12240000
opls_145-579    C    0.67181997    0.20054996    0.13106002    -0.13910000
opls_700-580    C    0.68962003    0.20842999    0.16069999    0.01420000
opls_145-581    C    0.69892005    0.22238003    0.14725984    -0.16030000
opls_145-582    C    0.69033009    0.22854995    0.10479009    -0.12410000
opls_142-583    C    0.69907004    0.20207001    0.20529013    0.07550000
opls_141-584    C    0.87269997    0.00000000    0.39413008    -0.00010000
opls_141-585    C    0.90061995    0.00000000    0.38200994    -0.00010000
opls_700-586    C    0.88393001    0.23547000    0.07746014    0.06660000
opls_145-587    C    0.40759006    0.74089000    0.05191986    -0.12460000
opls_145-588    C    0.41818995    0.73335997    0.01179013    -0.12790000
opls_700-589    C    0.90522010    0.22030001    0.99703997    0.06260000
opls_145-590    C    0.88222009    0.21459002    0.02408991    -0.13090000
opls_145-591    C    0.87165008    0.22216996    0.06413000    -0.12400000
opls_700-592    C    0.91451013    0.21325002    0.95182018    0.06630000
opls_145-593    C    0.93216014    0.17858996    0.75420014    0.18660000
opls_145-594    C    0.44635008    0.68734995    0.71976011    -0.18400000
opls_145-595    C    0.45128996    0.68212001    0.67388996    -0.18360000
opls_916-596    C    0.94235014    0.16802004    0.66200019    0.16770000
opls_145-597    C    0.92754999    0.15934996    0.69578020    -0.17360000
opls_145-598    C    0.92211997    0.16470995    0.74169000    -0.16870000
opls_700-599    C    0.14338002    0.98620002    0.60218024    0.06660000
opls_145-600    C    0.64764003    0.47915003    0.55810011    -0.12940000
opls_145-601    C    0.66146996    0.46553000    0.55574008    -0.13300000
opls_700-602    C    0.67110997    0.45886002    0.59779019    0.06670000
opls_145-603    C    0.16760009    0.96644997    0.64137996    -0.12240000
opls_145-604    C    0.15376014    0.97990995    0.64353998    -0.13480000
opls_700-605    C    0.68393010    0.44394001    0.59744019    0.06600000
opls_145-606    C    0.23292003    0.87775002    0.59692018    0.18430000
opls_145-607    C    0.22393013    0.86556001    0.57237991    -0.20670000
opls_145-608    C    0.23625999    0.85207001    0.58017999    -0.17530000
opls_916-609    C    0.25807004    0.85070001    0.61269000    0.16100000
opls_145-610    C    0.76597995    0.36271996    0.64020995    -0.18240000
opls_145-611    C    0.75355996    0.37626997    0.63250022    -0.17920000
opls_141-612    C    0.35630003    0.75616003    0.11021015    -0.00410000
opls_700-613    C    0.35038996    0.76133995    0.06206997    0.07460000
opls_145-614    C    0.82835006    0.25511001    0.03715005    -0.13470000
opls_145-615    C    0.82126000    0.26075998    0.99302028    -0.12460000
opls_700-616    C    0.33623012    0.77276004    0.97248005    0.05930000
opls_145-617    C    0.35913002    0.77858996    0.99776998    -0.13200000
opls_145-618    C    0.36604008    0.77288997    0.04203011    -0.13320000
opls_700-619    C    0.32757004    0.77923995    0.92592025    0.05830000
opls_145-620    C    0.30269010    0.81714997    0.73751995    0.19090000
opls_145-621    C    0.77566000    0.32339003    0.73743995    -0.16810000
opls_145-622    C    0.76647000    0.33040000    0.69657021    -0.17570000
opls_916-623    C    0.28424996    0.83107000    0.65557012    0.15810000
opls_145-624    C    0.31156999    0.82507002    0.65651013    -0.16810000
opls_145-625    C    0.32081012    0.81826001    0.69751022    -0.19330000
opls_700-626    C    0.34406012    0.23537997    0.15014988    0.07440000
opls_145-627    C    0.82092997    0.74091001    0.17635017    -0.13940000
opls_145-628    C    0.81052007    0.73341999    0.21624989    -0.12240000
opls_700-629    C    0.32334004    0.22024999    0.23145006    0.05930000
opls_145-630    C    0.34573994    0.21439996    0.20263010    -0.12790000
opls_145-631    C    0.35592003    0.22193999    0.16253001    -0.13480000
opls_700-632    C    0.31408995    0.21311998    0.27748021    0.05940000
opls_145-633    C    0.29609001    0.17856995    0.47585991    0.18670000
opls_145-634    C    0.78207004    0.68766995    0.50967993    -0.18220000
opls_145-635    C    0.77587996    0.68252003    0.55516007    -0.17860000
opls_916-636    C    0.28347008    0.16823000    0.56725021    0.16100000
opls_145-637    C    0.29827998    0.15929995    0.53417020    -0.16990000
opls_145-638    C    0.30488000    0.16455001    0.48862005    -0.18970000
opls_700-639    C    0.08331007    0.98614000    0.62176010    0.06230000
opls_145-640    C    0.57911995    0.47912002    0.66594023    -0.13380000
opls_145-641    C    0.56530008    0.46547998    0.66845026    -0.13540000
opls_700-642    C    0.55568999    0.45881001    0.62655015    0.06150000
opls_145-643    C    0.05919006    0.96617999    0.58276002    -0.12260000
opls_145-644    C    0.07292010    0.97975001    0.58042000    -0.11820000
opls_700-645    C    0.54287010    0.44402003    0.62760016    0.05940000
opls_145-646    C    0.99338011    0.87785005    0.62909018    0.18780000
opls_145-647    C    0.00221000    0.86567004    0.65385010    -0.20670000
opls_145-648    C    0.98928010    0.85228998    0.64713002    -0.17980000
opls_916-649    C    0.96691001    0.85102000    0.61566003    0.16650000
opls_145-650    C    0.45909006    0.36300005    0.58789008    -0.19830000
opls_145-651    C    0.47220010    0.37645003    0.59440015    -0.17940000
opls_141-652    C    0.87154997    0.75608000    0.11756987    0.00170000
opls_700-653    C    0.87735996    0.76124003    0.16591005    0.07590000
opls_145-654    C    0.39904002    0.25484004    0.19130998    -0.13230000
opls_145-655    C    0.40621000    0.26052002    0.23539011    -0.12270000
opls_700-656    C    0.89156007    0.77269002    0.25552997    0.05930000
opls_145-657    C    0.86895993    0.77866998    0.22986004    -0.13310000
opls_145-658    C    0.86201993    0.77296000    0.18561991    -0.13810000
opls_700-659    C    0.90018006    0.77916003    0.30211013    0.05920000
opls_145-660    C    0.92335000    0.81682998    0.49158009    0.19190000
opls_145-661    C    0.44919999    0.32429999    0.49073008    -0.16840000
opls_145-662    C    0.45792004    0.33149002    0.53156017    -0.17690000
opls_916-663    C    0.94085995    0.83116003    0.57349992    0.16200000
opls_145-664    C    0.91468010    0.82387997    0.57354992    -0.17480000
opls_145-665    C    0.90589000    0.81685999    0.53258018    -0.18970000
opls_145-666    C    0.55905009    0.56831002    0.61335000    -0.12970000
opls_145-667    C    0.54675004    0.58224005    0.61312000    -0.12490000
opls_700-668    C    0.51821009    0.58370998    0.62636015    0.05930000
opls_145-669    C    0.50197013    0.57163000    0.63986994    -0.09580000
opls_145-670    C    0.51415013    0.55776000    0.64055995    -0.13040000
opls_142-671    C    0.50330015    0.59692999    0.61616004    0.10940000
opls_145-672    C    0.32041001    0.56536005    0.36264009    -0.12300000
opls_145-673    C    0.30832006    0.57917004    0.36184008    -0.17570000
opls_700-674    C    0.29181008    0.58391004    0.40061015    0.06010000
opls_145-675    C    0.28744994    0.57514005    0.44089024    -0.13020000
opls_145-676    C    0.29945000    0.56115000    0.44183989    -0.12970000
opls_142-677    C    0.27491007    0.59667002    0.39366007    0.11010000
opls_145-678    C    0.41758011    0.27124999    0.33332012    -0.12460000
opls_145-679    C    0.42611999    0.27742002    0.37584988    -0.08670000
opls_700-680    C    0.41722006    0.29147998    0.38884002    0.02790000
opls_145-681    C    0.39991012    0.29947005    0.35869004    -0.13810000
opls_145-682    C    0.39161010    0.29345996    0.31580993    -0.12730000
opls_142-683    C    0.42649003    0.29785996    0.43349016    0.06130000
opls_145-684    C    0.43996998    0.29470003    0.94854014    -0.12420000
opls_145-685    C    0.44875009    0.30105001    0.90529002    -0.13780000
opls_700-686    C    0.43213017    0.29953996    0.86549994    0.06030000
opls_145-687    C    0.40693002    0.29157001    0.86807997    -0.13110000
opls_145-688    C    0.39812005    0.28516001    0.91114009    -0.12290000
opls_142-689    C    0.44153014    0.30593995    0.82070016    0.09300000
opls_145-690    C    0.29654998    0.22075005    0.31105987    -0.13300000
opls_145-691    C    0.28819997    0.21430004    0.35373999    -0.17740000
opls_700-692    C    0.29734993    0.20023997    0.36444011    0.05750000
opls_145-693    C    0.31516002    0.19253999    0.33283011    -0.13940000
opls_145-694    C    0.32325997    0.19881995    0.28949999    -0.12240000
opls_142-695    C    0.28806007    0.19395001    0.40929989    0.11450000
opls_145-696    C    0.33657011    0.20657005    0.91177009    -0.12230000
opls_145-697    C    0.32818003    0.20054996    0.86893998    -0.13910000
opls_700-698    C    0.31037997    0.20842999    0.83930001    0.01420000
opls_145-699    C    0.30108017    0.22238003    0.85274016    -0.16030000
opls_145-700    C    0.30967012    0.22854995    0.89521027    -0.12410000
opls_142-701    C    0.30093016    0.20207001    0.79471023    0.07550000
opls_141-702    C    0.12730003    0.00000000    0.60586992    -0.00010000
opls_141-703    C    0.09938005    0.00000000    0.61799006    -0.00010000
opls_700-704    C    0.88393001    0.76453000    0.07746014    0.06650000
opls_145-705    C    0.40759006    0.25911000    0.05191986    -0.12460000
opls_145-706    C    0.41818995    0.26664003    0.01179013    -0.12790000
opls_700-707    C    0.90522010    0.77969999    0.99703997    0.06260000
opls_145-708    C    0.88222009    0.78540998    0.02408991    -0.13090000
opls_145-709    C    0.87165008    0.77783004    0.06413000    -0.12400000
opls_700-710    C    0.91451013    0.78674998    0.95182018    0.06630000
opls_145-711    C    0.93216014    0.82141004    0.75420014    0.18660000
opls_145-712    C    0.44635008    0.31265005    0.71976011    -0.18400000
opls_145-713    C    0.45128996    0.31787999    0.67388996    -0.18340000
opls_916-714    C    0.94235014    0.83197996    0.66200019    0.16780000
opls_145-715    C    0.92754999    0.84065004    0.69578020    -0.17360000
opls_145-716    C    0.92211997    0.83529005    0.74169000    -0.16880000
opls_700-717    C    0.14338002    0.01379998    0.60218024    0.06660000
opls_145-718    C    0.64764003    0.52084997    0.55810011    -0.12950000
opls_145-719    C    0.66146996    0.53447000    0.55574008    -0.13300000
opls_700-720    C    0.67110997    0.54113998    0.59779019    0.06670000
opls_145-721    C    0.16760009    0.03355003    0.64137996    -0.12240000
opls_145-722    C    0.15376014    0.02009005    0.64353998    -0.13480000
opls_700-723    C    0.68393010    0.55605999    0.59744019    0.06600000
opls_145-724    C    0.23292003    0.12224998    0.59692018    0.18430000
opls_145-725    C    0.22393013    0.13443999    0.57237991    -0.20670000
opls_145-726    C    0.23625999    0.14792999    0.58017999    -0.17530000
opls_916-727    C    0.25807004    0.14929999    0.61269000    0.16110000
opls_145-728    C    0.76597995    0.63728004    0.64020995    -0.18240000
opls_145-729    C    0.75355996    0.62373003    0.63250022    -0.17920000
opls_141-730    C    0.35630003    0.24383997    0.11021015    -0.00410000
opls_700-731    C    0.35038996    0.23866005    0.06206997    0.07460000
opls_145-732    C    0.82835006    0.74488999    0.03715005    -0.13470000
opls_145-733    C    0.82126000    0.73924002    0.99302028    -0.12460000
opls_700-734    C    0.33623012    0.22723996    0.97248005    0.05930000
opls_145-735    C    0.35913002    0.22141004    0.99776998    -0.13200000
opls_145-736    C    0.36604008    0.22711003    0.04203011    -0.13320000
opls_700-737    C    0.32757004    0.22076005    0.92592025    0.05830000
opls_145-738    C    0.30269010    0.18285003    0.73751995    0.19100000
opls_145-739    C    0.77566000    0.67660997    0.73743995    -0.16810000
opls_145-740    C    0.76647000    0.66960000    0.69657021    -0.17570000
opls_916-741    C    0.28424996    0.16893000    0.65557012    0.15800000
opls_145-742    C    0.31156999    0.17492998    0.65651013    -0.16800000
opls_145-743    C    0.32081012    0.18173999    0.69751022    -0.19330000
opls_700-744    C    0.34406012    0.76462003    0.15014988    0.07440000
opls_145-745    C    0.82092997    0.25908999    0.17635017    -0.13940000
opls_145-746    C    0.81052007    0.26658001    0.21624989    -0.12240000
opls_700-747    C    0.32334004    0.77975001    0.23145006    0.05930000
opls_145-748    C    0.34573994    0.78560004    0.20263010    -0.12790000
opls_145-749    C    0.35592003    0.77806001    0.16253001    -0.13480000
opls_700-750    C    0.31408995    0.78688002    0.27748021    0.05940000
opls_145-751    C    0.29609001    0.82143005    0.47585991    0.18680000
opls_145-752    C    0.78207004    0.31233005    0.50967993    -0.18220000
opls_145-753    C    0.77587996    0.31747997    0.55516007    -0.17860000
opls_916-754    C    0.28347008    0.83177000    0.56725021    0.16100000
opls_145-755    C    0.29827998    0.84070005    0.53417020    -0.16990000
opls_145-756    C    0.30488000    0.83544999    0.48862005    -0.18960000
opls_700-757    C    0.08331007    0.01386000    0.62176010    0.06230000
opls_145-758    C    0.57911995    0.52087998    0.66594023    -0.13380000
opls_145-759    C    0.56530008    0.53452002    0.66845026    -0.13540000
opls_700-760    C    0.55568999    0.54118999    0.62655015    0.06150000
opls_145-761    C    0.05919006    0.03382001    0.58276002    -0.12260000
opls_145-762    C    0.07292010    0.02024999    0.58042000    -0.11820000
opls_700-763    C    0.54287010    0.55597997    0.62760016    0.05940000
opls_145-764    C    0.99338011    0.12214995    0.62909018    0.18780000
opls_145-765    C    0.00221000    0.13432996    0.65385010    -0.20670000
opls_145-766    C    0.98928010    0.14771002    0.64713002    -0.17980000
opls_916-767    C    0.96691001    0.14898000    0.61566003    0.16650000
opls_145-768    C    0.45909006    0.63699995    0.58789008    -0.19830000
opls_145-769    C    0.47220010    0.62354997    0.59440015    -0.17940000
opls_141-770    C    0.87154997    0.24392000    0.11756987    0.00170000
opls_700-771    C    0.87735996    0.23875997    0.16591005    0.07590000
opls_145-772    C    0.39904002    0.74515996    0.19130998    -0.13230000
opls_145-773    C    0.40621000    0.73947998    0.23539011    -0.12270000
opls_700-774    C    0.89156007    0.22730998    0.25552997    0.05930000
opls_145-775    C    0.86895993    0.22133002    0.22986004    -0.13310000
opls_145-776    C    0.86201993    0.22704000    0.18561991    -0.13810000
opls_700-777    C    0.90018006    0.22083997    0.30211013    0.05920000
opls_145-778    C    0.92335000    0.18317002    0.49158009    0.19180000
opls_145-779    C    0.44919999    0.67570001    0.49073008    -0.16840000
opls_145-780    C    0.45792004    0.66850998    0.53156017    -0.17690000
opls_916-781    C    0.94085995    0.16883997    0.57349992    0.16200000
opls_145-782    C    0.91468010    0.17612003    0.57354992    -0.17480000
opls_145-783    C    0.90589000    0.18314001    0.53258018    -0.18970000
opls_145-784    C    0.55905009    0.43168998    0.61335000    -0.12970000
opls_145-785    C    0.54675004    0.41775995    0.61312000    -0.12490000
opls_700-786    C    0.51821009    0.41629002    0.62636015    0.05930000
opls_145-787    C    0.50197013    0.42837000    0.63986994    -0.09580000
opls_145-788    C    0.51415013    0.44224000    0.64055995    -0.13060000
opls_142-789    C    0.50330015    0.40307001    0.61616004    0.10940000
opls_145-790    C    0.32041001    0.43463995    0.36264009    -0.12300000
opls_145-791    C    0.30832006    0.42082996    0.36184008    -0.17570000
opls_700-792    C    0.29181008    0.41608996    0.40061015    0.06010000
opls_145-793    C    0.28744994    0.42485995    0.44089024    -0.13020000
opls_145-794    C    0.29945000    0.43885000    0.44183989    -0.12970000
opls_142-795    C    0.27491007    0.40332998    0.39366007    0.11010000
opls_145-796    C    0.41758011    0.72875001    0.33332012    -0.12460000
opls_145-797    C    0.42611999    0.72257998    0.37584988    -0.08670000
opls_700-798    C    0.41722006    0.70852002    0.38884002    0.02790000
opls_145-799    C    0.39991012    0.70052995    0.35869004    -0.13810000
opls_145-800    C    0.39161010    0.70654004    0.31580993    -0.12730000
opls_142-801    C    0.42649003    0.70214004    0.43349016    0.06130000
opls_145-802    C    0.43996998    0.70529997    0.94854014    -0.12420000
opls_145-803    C    0.44875009    0.69894999    0.90529002    -0.13780000
opls_700-804    C    0.43213017    0.70046004    0.86549994    0.06030000
opls_145-805    C    0.40693002    0.70842999    0.86807997    -0.13130000
opls_145-806    C    0.39812005    0.71483999    0.91114009    -0.12290000
opls_142-807    C    0.44153014    0.69406005    0.82070016    0.09300000
opls_145-808    C    0.29654998    0.77924995    0.31105987    -0.13300000
opls_145-809    C    0.28819997    0.78569996    0.35373999    -0.17740000
opls_700-810    C    0.29734993    0.79976003    0.36444011    0.05750000
opls_145-811    C    0.31516002    0.80746001    0.33283011    -0.13940000
opls_145-812    C    0.32325997    0.80118005    0.28949999    -0.12240000
opls_142-813    C    0.28806007    0.80604999    0.40929989    0.11450000
opls_145-814    C    0.33657011    0.79342995    0.91177009    -0.12240000
opls_145-815    C    0.32818003    0.79945004    0.86893998    -0.13900000
opls_700-816    C    0.31037997    0.79157001    0.83930001    0.01420000
opls_145-817    C    0.30108017    0.77761997    0.85274016    -0.16030000
opls_145-818    C    0.30967012    0.77145005    0.89521027    -0.12410000
opls_142-819    C    0.30093016    0.79792999    0.79471023    0.07540000
opls_700-820    C    0.11606999    0.76453000    0.92254021    0.06650000
opls_145-821    C    0.59241016    0.25911000    0.94808014    -0.12460000
opls_145-822    C    0.58181004    0.26664003    0.98821023    -0.12790000
opls_700-823    C    0.09477990    0.77969999    0.00296003    0.06260000
opls_145-824    C    0.11778012    0.78540998    0.97591009    -0.13090000
opls_145-825    C    0.12835014    0.77783004    0.93587000    -0.12400000
opls_700-826    C    0.08549008    0.78674998    0.04818018    0.06630000
opls_145-827    C    0.06784007    0.82141004    0.24579986    0.18650000
opls_145-828    C    0.55365013    0.31265005    0.28023989    -0.18400000
opls_145-829    C    0.54871004    0.31787999    0.32611004    -0.18360000
opls_916-830    C    0.05765006    0.83197996    0.33800017    0.16770000
opls_145-831    C    0.07245001    0.84065004    0.30422015    -0.17360000
opls_145-832    C    0.07788003    0.83529005    0.25831000    -0.16880000
opls_700-833    C    0.85661998    0.01379998    0.39782012    0.06660000
opls_145-834    C    0.35235997    0.52084997    0.44189989    -0.12950000
opls_145-835    C    0.33853004    0.53447000    0.44425992    -0.13300000
opls_700-836    C    0.32889002    0.54113998    0.40221017    0.06670000
opls_145-837    C    0.83240012    0.03355003    0.35862004    -0.12240000
opls_145-838    C    0.84624008    0.02009005    0.35646002    -0.13480000
opls_700-839    C    0.31607010    0.55605999    0.40256017    0.06600000
opls_145-840    C    0.76707996    0.12224998    0.40308018    0.18430000
opls_145-841    C    0.77607009    0.13443999    0.42762009    -0.20670000
opls_145-842    C    0.76374001    0.14792999    0.41982001    -0.17530000
opls_916-843    C    0.74192996    0.14929999    0.38731000    0.16100000
opls_145-844    C    0.23402005    0.63728004    0.35979005    -0.18240000
opls_145-845    C    0.24644003    0.62373003    0.36750014    -0.17910000
opls_141-846    C    0.64369997    0.24383997    0.88979021    -0.00410000
opls_700-847    C    0.64961004    0.23866005    0.93793003    0.07460000
opls_145-848    C    0.17165014    0.74488999    0.96285030    -0.13460000
opls_145-849    C    0.17874000    0.73924002    0.00698008    -0.12290000
opls_700-850    C    0.66377009    0.22723996    0.02751995    0.05930000
opls_145-851    C    0.64086998    0.22141004    0.00223002    -0.13190000
opls_145-852    C    0.63396013    0.22711003    0.95797025    -0.13320000
opls_700-853    C    0.67242996    0.22076005    0.07408011    0.05830000
opls_145-854    C    0.69731011    0.18285003    0.26248005    0.19090000
opls_145-855    C    0.22434000    0.67660997    0.26256005    -0.16810000
opls_145-856    C    0.23352999    0.66960000    0.30343015    -0.17570000
opls_916-857    C    0.71575004    0.16893000    0.34442988    0.15800000
opls_145-858    C    0.68843001    0.17492998    0.34348987    -0.16810000
opls_145-859    C    0.67919008    0.18173999    0.30249013    -0.19320000
opls_700-860    C    0.65594010    0.76462003    0.84985012    0.07440000
opls_145-861    C    0.17907002    0.25908999    0.82365019    -0.13940000
opls_145-862    C    0.18948014    0.26658001    0.78375011    -0.12240000
opls_700-863    C    0.67665996    0.77975001    0.76854994    0.05930000
opls_145-864    C    0.65426005    0.78560004    0.79737026    -0.12790000
opls_145-865    C    0.64407997    0.77806001    0.83746999    -0.13480000
opls_700-866    C    0.68591004    0.78688002    0.72252014    0.05940000
opls_145-867    C    0.70390999    0.82143005    0.52414009    0.18670000
opls_145-868    C    0.21792996    0.31233005    0.49032007    -0.18220000
opls_145-869    C    0.22412004    0.31747997    0.44483993    -0.17860000
opls_916-870    C    0.71653012    0.83177000    0.43275015    0.16100000
opls_145-871    C    0.70172001    0.84070005    0.46583016    -0.16990000
opls_145-872    C    0.69512000    0.83544999    0.51137995    -0.18970000
opls_700-873    C    0.91669014    0.01386000    0.37823990    0.06230000
opls_145-874    C    0.42088004    0.52087998    0.33406013    -0.13380000
opls_145-875    C    0.43470012    0.53452002    0.33155010    -0.13540000
opls_700-876    C    0.44431000    0.54118999    0.37345021    0.06150000
opls_145-877    C    0.94080994    0.03382001    0.41723998    -0.12270000
opls_145-878    C    0.92708011    0.02024999    0.41958000    -0.11820000
opls_700-879    C    0.45713011    0.55597997    0.37240019    0.05940000
opls_145-880    C    0.00662009    0.12214995    0.37091018    0.18780000
opls_145-881    C    0.99779000    0.13432996    0.34614990    -0.20670000
opls_145-882    C    0.01072011    0.14771002    0.35286998    -0.17980000
opls_916-883    C    0.03308999    0.14898000    0.38433997    0.16660000
opls_145-884    C    0.54090994    0.63699995    0.41210992    -0.19830000
opls_145-885    C    0.52780011    0.62354997    0.40560020    -0.17940000
opls_141-886    C    0.12845003    0.24392000    0.88243013    0.00170000
opls_700-887    C    0.12264004    0.23875997    0.83408995    0.07590000
opls_145-888    C    0.60095998    0.74515996    0.80869002    -0.13230000
opls_145-889    C    0.59379000    0.73947998    0.76461025    -0.12260000
opls_700-890    C    0.10844014    0.22730998    0.74447003    0.05930000
opls_145-891    C    0.13104007    0.22133002    0.77013996    -0.13310000
opls_145-892    C    0.13798007    0.22704000    0.81438009    -0.13810000
opls_700-893    C    0.09982014    0.22083997    0.69789023    0.05920000
opls_145-894    C    0.07665000    0.18317002    0.50841991    0.19180000
opls_145-895    C    0.55080001    0.67570001    0.50926992    -0.16840000
opls_145-896    C    0.54207995    0.66850998    0.46844019    -0.17690000
opls_916-897    C    0.05914005    0.16883997    0.42650008    0.16200000
opls_145-898    C    0.08532011    0.17612003    0.42645008    -0.17480000
opls_145-899    C    0.09410999    0.18314001    0.46742018    -0.18970000
opls_145-900    C    0.44095012    0.43168998    0.38665000    -0.12970000
opls_145-901    C    0.45324996    0.41775995    0.38688000    -0.12490000
opls_700-902    C    0.48179012    0.41629002    0.37364021    0.05930000
opls_145-903    C    0.49803008    0.42837000    0.36013006    -0.09580000
opls_145-904    C    0.48585008    0.44224000    0.35944005    -0.13060000
opls_142-905    C    0.49670006    0.40307001    0.38383996    0.10940000
opls_145-906    C    0.67958999    0.43463995    0.63735991    -0.12300000
opls_145-907    C    0.69168016    0.42082996    0.63815992    -0.17570000
opls_700-908    C    0.70819012    0.41608996    0.59939021    0.06010000
opls_145-909    C    0.71255006    0.42485995    0.55911012    -0.13020000
opls_145-910    C    0.70055000    0.43885000    0.55816011    -0.12970000
opls_142-911    C    0.72509014    0.40332998    0.60633993    0.11010000
opls_145-912    C    0.58242010    0.72875001    0.66668024    -0.12460000
opls_145-913    C    0.57388001    0.72257998    0.62415012    -0.08670000
opls_700-914    C    0.58278015    0.70852002    0.61115998    0.02790000
opls_145-915    C    0.60009009    0.70052995    0.64130996    -0.13810000
opls_145-916    C    0.60839011    0.70654004    0.68419007    -0.12730000
opls_142-917    C    0.57350996    0.70214004    0.56651020    0.06130000
opls_145-918    C    0.56003002    0.70529997    0.05145986    -0.12420000
opls_145-919    C    0.55124991    0.69894999    0.09470998    -0.13770000
opls_700-920    C    0.56787004    0.70046004    0.13450006    0.06030000
opls_145-921    C    0.59306998    0.70842999    0.13192003    -0.13130000
opls_145-922    C    0.60187995    0.71483999    0.08885991    -0.12280000
opls_142-923    C    0.55847006    0.69406005    0.17930020    0.09310000
opls_145-924    C    0.70345002    0.77924995    0.68894013    -0.13290000
opls_145-925    C    0.71180003    0.78569996    0.64626001    -0.17720000
opls_700-926    C    0.70265006    0.79976003    0.63556025    0.05750000
opls_145-927    C    0.68483997    0.80746001    0.66717024    -0.13940000
opls_145-928    C    0.67674003    0.80118005    0.71050001    -0.12240000
opls_142-929    C    0.71194014    0.80604999    0.59070011    0.11460000
opls_145-930    C    0.66343010    0.79342995    0.08822991    -0.12240000
opls_145-931    C    0.67181997    0.79945004    0.13106002    -0.13910000
opls_700-932    C    0.68962003    0.79157001    0.16069999    0.01420000
opls_145-933    C    0.69892005    0.77761997    0.14725984    -0.16020000
opls_145-934    C    0.69033009    0.77145005    0.10479009    -0.12410000
opls_142-935    C    0.69907004    0.79792999    0.20529013    0.07540000
opls_750-936    N    0.57372010    0.68405998    0.19893006    -0.30990000
opls_750-937    N    0.28040000    0.39123000    0.41476995    -0.31330000
opls_750-938    N    0.18776004    0.30998995    0.22109995    -0.31050000
opls_239-939    N    0.54982999    0.66202996    0.38359996    -0.14620000
opls_750-940    N    0.19755010    0.68363995    0.57115025    -0.31170000
opls_750-941    N    0.49245005    0.39119999    0.36060006    -0.31320000
opls_750-942    N    0.58577006    0.30959004    0.54993002    -0.32180000
opls_239-943    N    0.22540998    0.66240997    0.38748000    -0.14750000
opls_750-944    N    0.42628011    0.68405998    0.80106994    -0.31000000
opls_750-945    N    0.71960000    0.39123000    0.58523005    -0.31330000
opls_750-946    N    0.81224017    0.30998995    0.77890005    -0.31050000
opls_239-947    N    0.45017001    0.66202996    0.61640004    -0.14610000
opls_750-948    N    0.80245010    0.68363995    0.42885011    -0.31170000
opls_750-949    N    0.50755016    0.39119999    0.63939994    -0.31320000
opls_750-950    N    0.41422994    0.30959004    0.45006998    -0.32180000
opls_239-951    N    0.77459002    0.66240997    0.61252000    -0.14750000
opls_750-952    N    0.42628011    0.31594002    0.80106994    -0.31010000
opls_750-953    N    0.71960000    0.60877000    0.58523005    -0.31330000
opls_750-954    N    0.81224017    0.69001005    0.77890005    -0.31050000
opls_239-955    N    0.45017001    0.33797004    0.61640004    -0.14620000
opls_750-956    N    0.80245010    0.31636005    0.42885011    -0.31170000
opls_750-957    N    0.50755016    0.60880001    0.63939994    -0.31310000
opls_750-958    N    0.41422994    0.69040996    0.45006998    -0.32170000
opls_239-959    N    0.77459002    0.33759003    0.61252000    -0.14750000
opls_750-960    N    0.57372010    0.31594002    0.19893006    -0.31010000
opls_750-961    N    0.28040000    0.60877000    0.41476995    -0.31330000
opls_750-962    N    0.18776004    0.69001005    0.22109995    -0.31050000
opls_239-963    N    0.54982999    0.33797004    0.38359996    -0.14610000
opls_750-964    N    0.19755010    0.31636005    0.57115025    -0.31180000
opls_750-965    N    0.49245005    0.60880001    0.36060006    -0.31310000
opls_750-966    N    0.58577006    0.69040996    0.54993002    -0.32170000
opls_239-967    N    0.22540998    0.33759003    0.38748000    -0.14730000
opls_750-968    N    0.07372010    0.18405998    0.19893006    -0.31010000
opls_750-969    N    0.78040000    0.89123000    0.41476995    -0.31330000
opls_750-970    N    0.68776004    0.80998995    0.22109995    -0.31050000
opls_239-971    N    0.04982999    0.16202996    0.38359996    -0.14620000
opls_750-972    N    0.69755010    0.18363995    0.57115025    -0.31180000
opls_750-973    N    0.99245005    0.89119999    0.36060006    -0.31320000
opls_750-974    N    0.08577006    0.80959004    0.54993002    -0.32180000
opls_239-975    N    0.72540998    0.16240997    0.38748000    -0.14750000
opls_750-976    N    0.92628011    0.18405998    0.80106994    -0.31010000
opls_750-977    N    0.21960000    0.89123000    0.58523005    -0.31330000
opls_750-978    N    0.31224017    0.80998995    0.77890005    -0.31050000
opls_239-979    N    0.95017001    0.16202996    0.61640004    -0.14620000
opls_750-980    N    0.30245010    0.18363995    0.42885011    -0.31180000
opls_750-981    N    0.00755016    0.89119999    0.63939994    -0.31320000
opls_750-982    N    0.91422994    0.80959004    0.45006998    -0.32180000
opls_239-983    N    0.27459002    0.16240997    0.61252000    -0.14750000
opls_750-984    N    0.92628011    0.81594002    0.80106994    -0.31000000
opls_750-985    N    0.21960000    0.10877000    0.58523005    -0.31330000
opls_750-986    N    0.31224017    0.19001005    0.77890005    -0.31050000
opls_239-987    N    0.95017001    0.83797004    0.61640004    -0.14610000
opls_750-988    N    0.30245010    0.81636005    0.42885011    -0.31170000
opls_750-989    N    0.00755016    0.10880001    0.63939994    -0.31320000
opls_750-990    N    0.91422994    0.19040996    0.45006998    -0.32180000
opls_239-991    N    0.27459002    0.83759003    0.61252000    -0.14750000
opls_750-992    N    0.07372010    0.81594002    0.19893006    -0.31010000
opls_750-993    N    0.78040000    0.10877000    0.41476995    -0.31320000
opls_750-994    N    0.68776004    0.19001005    0.22109995    -0.31030000
opls_239-995    N    0.04982999    0.83797004    0.38359996    -0.14620000
opls_750-996    N    0.69755010    0.81636005    0.57115025    -0.31170000
opls_750-997    N    0.99245005    0.10880001    0.36060006    -0.31320000
opls_750-998    N    0.08577006    0.19040996    0.54993002    -0.32180000
opls_239-999    N    0.72540998    0.83759003    0.38748000    -0.14740000
opls_146-1000    H    0.08262012    0.25106002    0.93728002    0.11220000
opls_146-1001    H    0.06402006    0.23788001    0.00845009    0.11230000
opls_146-1002    H    0.62773004    0.70440000    0.98599020    0.11600000
opls_146-1003    H    0.64648012    0.71791000    0.91591014    0.11480000
opls_146-1004    H    0.04662004    0.19833001    0.27208016    0.10930000
opls_146-1005    H    0.03746000    0.18892002    0.35206997    0.11300000
opls_146-1006    H    0.57955006    0.64844004    0.31376990    0.11040000
opls_146-1007    H    0.58950993    0.65798996    0.23249007    0.10880000
opls_146-1008    H    0.86017013    0.98409999    0.47403989    0.11330000
opls_146-1009    H    0.83607014    0.96015000    0.47862994    0.11060000
opls_146-1010    H    0.32447999    0.46197005    0.32594004    0.11810000
opls_146-1011    H    0.34915001    0.48533996    0.32235000    0.11370000
opls_146-1012    H    0.29252996    0.36672995    0.45330002    0.11590000
opls_146-1013    H    0.27055002    0.34280997    0.44055023    0.11100000
opls_146-1014    H    0.71759004    0.86175998    0.33384012    0.10930000
opls_146-1015    H    0.73918001    0.88520002    0.34564990    0.11810000
opls_146-1016    H    0.68378009    0.74606004    0.94778014    0.11510000
opls_146-1017    H    0.69660006    0.75582002    0.02361990    0.11200000
opls_146-1018    H    0.12802005    0.28755002    0.01575017    0.11220000
opls_146-1019    H    0.11642017    0.27751005    0.93923004    0.11560000
opls_146-1020    H    0.73809995    0.82283996    0.23097006    0.11200000
opls_146-1021    H    0.75458001    0.83508999    0.30352015    0.10950000
opls_146-1022    H    0.17438005    0.32571001    0.37466022    0.10810000
opls_146-1023    H    0.15819002    0.31359002    0.30225013    0.11580000
opls_146-1024    H    0.68887002    0.25115004    0.83358994    0.11190000
opls_146-1025    H    0.70748014    0.23825002    0.76540026    0.11770000
opls_146-1026    H    0.14364008    0.70427996    0.78922017    0.12340000
opls_146-1027    H    0.12633005    0.71749998    0.85792021    0.11580000
opls_146-1028    H    0.72401009    0.19881005    0.49848016    0.11490000
opls_146-1029    H    0.73523997    0.18956001    0.41942000    0.11300000
opls_146-1030    H    0.19549011    0.64827999    0.45613005    0.11480000
opls_146-1031    H    0.18364010    0.65766997    0.53690023    0.11050000
opls_146-1032    H    0.91305996    0.98412000    0.30198013    0.11230000
opls_146-1033    H    0.93744998    0.96009999    0.29724008    0.11130000
opls_146-1034    H    0.44855011    0.46134996    0.44959998    0.11600000
opls_146-1035    H    0.42414002    0.48521002    0.45365002    0.11610000
opls_146-1036    H    0.48088012    0.36675996    0.32125999    0.11610000
opls_146-1037    H    0.50388002    0.34303004    0.33218011    0.11640000
opls_146-1038    H    0.05770007    0.86210998    0.43743020    0.11020000
opls_146-1039    H    0.03500007    0.88534996    0.42761009    0.11210000
opls_146-1040    H    0.08909000    0.74565001    0.82342019    0.11230000
opls_146-1041    H    0.07613014    0.75548002    0.74770006    0.11200000
opls_146-1042    H    0.64362002    0.28777998    0.75694017    0.11810000
opls_146-1043    H    0.65527013    0.27772001    0.83337994    0.11330000
opls_146-1044    H    0.03758014    0.82457997    0.54152992    0.11170000
opls_146-1045    H    0.02191004    0.83711999    0.46919019    0.11090000
opls_146-1046    H    0.59883995    0.32366000    0.39456008    0.11010000
opls_146-1047    H    0.61424997    0.31122002    0.46692017    0.11230000
opls_146-1048    H    0.91902998    0.06715998    0.39798012    0.11360000
opls_146-1049    H    0.94108009    0.09172005    0.39901013    0.10920000
opls_146-1050    H    0.02029007    0.07314995    0.35128996    0.11380000
opls_146-1051    H    0.99912002    0.04853996    0.34969994    0.10590000
opls_144-1052    H    0.01174993    0.09631001    0.41142991    0.10040000
opls_146-1053    H    0.16697999    0.06209998    0.66834026    0.11460000
opls_146-1054    H    0.18885995    0.08612999    0.66936027    0.11110000
opls_146-1055    H    0.22615002    0.07893996    0.52977015    0.10970000
opls_146-1056    H    0.20496996    0.05429997    0.52741012    0.11930000
opls_144-1057    H    0.23928995    0.09618997    0.63524025    0.11450000
opls_146-1058    H    0.07525000    0.76022003    0.67384996    0.09800000
opls_146-1059    H    0.06051995    0.77113995    0.60106023    0.11600000
opls_146-1060    H    0.10691002    0.81048000    0.63195021    0.11510000
opls_146-1061    H    0.12116005    0.80035000    0.70615996    0.09470000
opls_144-1062    H    0.05657002    0.79262002    0.54754999    0.09540000
opls_146-1063    H    0.04702995    0.79611005    0.02082987    0.10590000
opls_146-1064    H    0.03182992    0.80732997    0.09757001    0.11240000
opls_146-1065    H    0.10549996    0.79023001    0.16350002    0.11010000
opls_146-1066    H    0.12127005    0.77886005    0.08741990    0.11630000
opls_144-1067    H    0.03909000    0.80180004    0.19590003    0.09290000
opls_146-1068    H    0.21090998    0.73178001    0.69393018    0.09270000
opls_146-1069    H    0.22518010    0.72035003    0.62105009    0.10880000
opls_146-1070    H    0.17763996    0.68158005    0.65860015    0.11130000
opls_146-1071    H    0.16353013    0.69215998    0.73376027    0.09810000
opls_144-1072    H    0.23034999    0.69878004    0.57311992    0.11620000
opls_146-1073    H    0.15024991    0.69977004    0.06665002    0.12220000
opls_146-1074    H    0.16463006    0.68963003    0.14079013    0.11220000
opls_146-1075    H    0.21270007    0.72855995    0.16990010    0.11190000
opls_146-1076    H    0.19788006    0.73948999    0.09730001    0.10360000
opls_144-1077    H    0.21540003    0.70761995    0.22486999    0.10170000
opls_146-1078    H    0.91738009    0.25106002    0.06271998    0.11220000
opls_146-1079    H    0.93597994    0.23788001    0.99154991    0.11240000
opls_146-1080    H    0.37226995    0.70440000    0.01401016    0.11610000
opls_146-1081    H    0.35352009    0.71791000    0.08408986    0.11480000
opls_146-1082    H    0.95338016    0.19833001    0.72792020    0.10930000
opls_146-1083    H    0.96254000    0.18892002    0.64793003    0.11300000
opls_146-1084    H    0.42045015    0.64844004    0.68623010    0.11040000
opls_146-1085    H    0.41049007    0.65798996    0.76750993    0.10880000
opls_146-1086    H    0.13983009    0.98409999    0.52596011    0.11330000
opls_146-1087    H    0.16393007    0.96015000    0.52137006    0.11060000
opls_146-1088    H    0.67552001    0.46197005    0.67405996    0.11490000
opls_146-1089    H    0.65084999    0.48533996    0.67765000    0.11360000
opls_146-1090    H    0.70747004    0.36672995    0.54669998    0.11600000
opls_146-1091    H    0.72944998    0.34280997    0.55945012    0.11100000
opls_146-1092    H    0.28240995    0.86175998    0.66616023    0.10930000
opls_146-1093    H    0.26081999    0.88520002    0.65435010    0.11810000
opls_146-1094    H    0.31621991    0.74606004    0.05221986    0.11510000
opls_146-1095    H    0.30340015    0.75582002    0.97638010    0.11200000
opls_146-1096    H    0.87198015    0.28755002    0.98425018    0.11210000
opls_146-1097    H    0.88358005    0.27751005    0.06076996    0.11560000
opls_146-1098    H    0.26190005    0.82283996    0.76902994    0.11210000
opls_146-1099    H    0.24541998    0.83508999    0.69648021    0.10950000
opls_146-1100    H    0.82561995    0.32571001    0.62534014    0.10820000
opls_146-1101    H    0.84180997    0.31359002    0.69775023    0.11580000
opls_146-1102    H    0.31112998    0.25115004    0.16641006    0.11200000
opls_146-1103    H    0.29252007    0.23825002    0.23460010    0.11770000
opls_146-1104    H    0.85635991    0.70427996    0.21078019    0.12340000
opls_146-1105    H    0.87366994    0.71749998    0.14208014    0.11580000
opls_146-1106    H    0.27599011    0.19881005    0.50152020    0.11490000
opls_146-1107    H    0.26476003    0.18956001    0.58058000    0.11300000
opls_146-1108    H    0.80451010    0.64827999    0.54386995    0.11480000
opls_146-1109    H    0.81636011    0.65766997    0.46310013    0.11040000
opls_146-1110    H    0.08694003    0.98412000    0.69802023    0.11230000
opls_146-1111    H    0.06255002    0.96009999    0.70275992    0.11130000
opls_146-1112    H    0.55145010    0.46134996    0.55040002    0.11610000
opls_146-1113    H    0.57585998    0.48521002    0.54634998    0.11610000
opls_146-1114    H    0.51912009    0.36675996    0.67874001    0.11610000
opls_146-1115    H    0.49611997    0.34303004    0.66782025    0.11640000
opls_146-1116    H    0.94230013    0.86210998    0.56257016    0.11010000
opls_146-1117    H    0.96500015    0.88534996    0.57238991    0.11210000
opls_146-1118    H    0.91091000    0.74565001    0.17658017    0.11240000
opls_146-1119    H    0.92387007    0.75548002    0.25229994    0.11200000
opls_146-1120    H    0.35637997    0.28777998    0.24306019    0.11810000
opls_146-1121    H    0.34473008    0.27772001    0.16662006    0.11330000
opls_146-1122    H    0.96242007    0.82457997    0.45847008    0.11170000
opls_146-1123    H    0.97808996    0.83711999    0.53081016    0.11090000
opls_146-1124    H    0.40116005    0.32366000    0.60543992    0.11010000
opls_146-1125    H    0.38575003    0.31122002    0.53308019    0.11230000
opls_146-1126    H    0.08097001    0.06715998    0.60202024    0.11370000
opls_146-1127    H    0.05892011    0.09172005    0.60099023    0.10920000
opls_146-1128    H    0.97971014    0.07314995    0.64871004    0.11380000
opls_146-1129    H    0.00087998    0.04853996    0.65030006    0.10590000
opls_144-1130    H    0.98825007    0.09631001    0.58857009    0.10000000
opls_146-1131    H    0.83302000    0.06209998    0.33166010    0.11460000
opls_146-1132    H    0.81114005    0.08612999    0.33064009    0.11110000
opls_146-1133    H    0.77384998    0.07893996    0.47023021    0.10970000
opls_146-1134    H    0.79503004    0.05429997    0.47259023    0.11930000
opls_144-1135    H    0.76071004    0.09618997    0.36476011    0.11430000
opls_146-1136    H    0.92475000    0.76022003    0.32615004    0.09810000
opls_146-1137    H    0.93948004    0.77113995    0.39894013    0.11600000
opls_146-1138    H    0.89308997    0.81048000    0.36805015    0.11510000
opls_146-1139    H    0.87883995    0.80035000    0.29384004    0.09470000
opls_144-1140    H    0.94342998    0.79262002    0.45245001    0.09540000
opls_146-1141    H    0.95297005    0.79611005    0.97917013    0.10590000
opls_146-1142    H    0.96817008    0.80732997    0.90242999    0.11240000
opls_146-1143    H    0.89450004    0.79023001    0.83649998    0.11010000
opls_146-1144    H    0.87873016    0.77886005    0.91258010    0.11640000
opls_144-1145    H    0.96091000    0.80180004    0.80409997    0.09270000
opls_146-1146    H    0.78909002    0.73178001    0.30607017    0.09270000
opls_146-1147    H    0.77482011    0.72035003    0.37894991    0.10880000
opls_146-1148    H    0.82236003    0.68158005    0.34140021    0.11130000
opls_146-1149    H    0.83647008    0.69215998    0.26624009    0.09800000
opls_144-1150    H    0.76965001    0.69878004    0.42688008    0.11620000
opls_146-1151    H    0.84975009    0.69977004    0.93334998    0.12220000
opls_146-1152    H    0.83537014    0.68963003    0.85921023    0.11220000
opls_146-1153    H    0.78730014    0.72855995    0.83010026    0.11190000
opls_146-1154    H    0.80212015    0.73948999    0.90269999    0.10360000
opls_144-1155    H    0.78459997    0.70761995    0.77513001    0.10170000
opls_146-1156    H    0.91738009    0.74893998    0.06271998    0.11220000
opls_146-1157    H    0.93597994    0.76211999    0.99154991    0.11230000
opls_146-1158    H    0.37226995    0.29560000    0.01401016    0.11600000
opls_146-1159    H    0.35352009    0.28209000    0.08408986    0.11480000
opls_146-1160    H    0.95338016    0.80166999    0.72792020    0.10930000
opls_146-1161    H    0.96254000    0.81107998    0.64793003    0.11300000
opls_146-1162    H    0.42045015    0.35155996    0.68623010    0.11040000
opls_146-1163    H    0.41049007    0.34201004    0.76750993    0.10880000
opls_146-1164    H    0.13983009    0.01590001    0.52596011    0.11330000
opls_146-1165    H    0.16393007    0.03985000    0.52137006    0.11060000
opls_146-1166    H    0.67552001    0.53802995    0.67405996    0.11490000
opls_146-1167    H    0.65084999    0.51466004    0.67765000    0.11360000
opls_146-1168    H    0.70747004    0.63327005    0.54669998    0.11600000
opls_146-1169    H    0.72944998    0.65719003    0.55945012    0.11100000
opls_146-1170    H    0.28240995    0.13824002    0.66616023    0.10930000
opls_146-1171    H    0.26081999    0.11479998    0.65435010    0.11810000
opls_146-1172    H    0.31621991    0.25393996    0.05221986    0.11510000
opls_146-1173    H    0.30340015    0.24417998    0.97638010    0.11200000
opls_146-1174    H    0.87198015    0.71244998    0.98425018    0.11210000
opls_146-1175    H    0.88358005    0.72248995    0.06076996    0.11560000
opls_146-1176    H    0.26190005    0.17716004    0.76902994    0.11200000
opls_146-1177    H    0.24541998    0.16491001    0.69648021    0.10950000
opls_146-1178    H    0.82561995    0.67428999    0.62534014    0.10810000
opls_146-1179    H    0.84180997    0.68640998    0.69775023    0.11580000
opls_146-1180    H    0.31112998    0.74884996    0.16641006    0.11190000
opls_146-1181    H    0.29252007    0.76174998    0.23460010    0.11770000
opls_146-1182    H    0.85635991    0.29572004    0.21078019    0.12340000
opls_146-1183    H    0.87366994    0.28250002    0.14208014    0.11580000
opls_146-1184    H    0.27599011    0.80118995    0.50152020    0.11490000
opls_146-1185    H    0.26476003    0.81043999    0.58058000    0.11300000
opls_146-1186    H    0.80451010    0.35172001    0.54386995    0.11480000
opls_146-1187    H    0.81636011    0.34233003    0.46310013    0.11040000
opls_146-1188    H    0.08694003    0.01588000    0.69802023    0.11230000
opls_146-1189    H    0.06255002    0.03990001    0.70275992    0.11130000
opls_146-1190    H    0.55145010    0.53865004    0.55040002    0.11600000
opls_146-1191    H    0.57585998    0.51478998    0.54634998    0.11610000
opls_146-1192    H    0.51912009    0.63324004    0.67874001    0.11610000
opls_146-1193    H    0.49611997    0.65696996    0.66782025    0.11640000
opls_146-1194    H    0.94230013    0.13789002    0.56257016    0.11010000
opls_146-1195    H    0.96500015    0.11465004    0.57238991    0.11210000
opls_146-1196    H    0.91091000    0.25434999    0.17658017    0.11230000
opls_146-1197    H    0.92387007    0.24451998    0.25229994    0.11200000
opls_146-1198    H    0.35637997    0.71222002    0.24306019    0.11810000
opls_146-1199    H    0.34473008    0.72227999    0.16662006    0.11330000
opls_146-1200    H    0.96242007    0.17542003    0.45847008    0.11170000
opls_146-1201    H    0.97808996    0.16288001    0.53081016    0.11090000
opls_146-1202    H    0.40116005    0.67634000    0.60543992    0.11010000
opls_146-1203    H    0.38575003    0.68877998    0.53308019    0.11230000
opls_146-1204    H    0.08097001    0.93284002    0.60202024    0.11360000
opls_146-1205    H    0.05892011    0.90827995    0.60099023    0.10920000
opls_146-1206    H    0.97971014    0.92685005    0.64871004    0.11380000
opls_146-1207    H    0.00087998    0.95146004    0.65030006    0.10590000
opls_144-1208    H    0.98825007    0.90368999    0.58857009    0.10010000
opls_146-1209    H    0.83302000    0.93790002    0.33166010    0.11460000
opls_146-1210    H    0.81114005    0.91387001    0.33064009    0.11110000
opls_146-1211    H    0.77384998    0.92106004    0.47023021    0.10970000
opls_146-1212    H    0.79503004    0.94570003    0.47259023    0.11930000
opls_144-1213    H    0.76071004    0.90381003    0.36476011    0.11430000
opls_146-1214    H    0.92475000    0.23977997    0.32615004    0.09800000
opls_146-1215    H    0.93948004    0.22886005    0.39894013    0.11610000
opls_146-1216    H    0.89308997    0.18952000    0.36805015    0.11510000
opls_146-1217    H    0.87883995    0.19965000    0.29384004    0.09470000
opls_144-1218    H    0.94342998    0.20737998    0.45245001    0.09540000
opls_146-1219    H    0.95297005    0.20388995    0.97917013    0.10590000
opls_146-1220    H    0.96817008    0.19267003    0.90242999    0.11250000
opls_146-1221    H    0.89450004    0.20976999    0.83649998    0.11010000
opls_146-1222    H    0.87873016    0.22113995    0.91258010    0.11630000
opls_144-1223    H    0.96091000    0.19819996    0.80409997    0.09270000
opls_146-1224    H    0.78909002    0.26821999    0.30607017    0.09270000
opls_146-1225    H    0.77482011    0.27964997    0.37894991    0.10880000
opls_146-1226    H    0.82236003    0.31841995    0.34140021    0.11130000
opls_146-1227    H    0.83647008    0.30784002    0.26624009    0.09800000
opls_144-1228    H    0.76965001    0.30121996    0.42688008    0.11620000
opls_146-1229    H    0.84975009    0.30022996    0.93334998    0.12220000
opls_146-1230    H    0.83537014    0.31036997    0.85921023    0.11220000
opls_146-1231    H    0.78730014    0.27144005    0.83010026    0.11190000
opls_146-1232    H    0.80212015    0.26051001    0.90269999    0.10360000
opls_144-1233    H    0.78459997    0.29238005    0.77513001    0.10170000
opls_146-1234    H    0.08262012    0.74893998    0.93728002    0.11220000
opls_146-1235    H    0.06402006    0.76211999    0.00845009    0.11230000
opls_146-1236    H    0.62773004    0.29560000    0.98599020    0.11600000
opls_146-1237    H    0.64648012    0.28209000    0.91591014    0.11480000
opls_146-1238    H    0.04662004    0.80166999    0.27208016    0.10930000
opls_146-1239    H    0.03746000    0.81107998    0.35206997    0.11300000
opls_146-1240    H    0.57955006    0.35155996    0.31376990    0.11040000
opls_146-1241    H    0.58950993    0.34201004    0.23249007    0.10890000
opls_146-1242    H    0.86017013    0.01590001    0.47403989    0.11330000
opls_146-1243    H    0.83607014    0.03985000    0.47862994    0.11060000
opls_146-1244    H    0.32447999    0.53802995    0.32594004    0.11820000
opls_146-1245    H    0.34915001    0.51466004    0.32235000    0.11360000
opls_146-1246    H    0.29252996    0.63327005    0.45330002    0.11580000
opls_146-1247    H    0.27055002    0.65719003    0.44055023    0.11100000
opls_146-1248    H    0.71759004    0.13824002    0.33384012    0.10930000
opls_146-1249    H    0.73918001    0.11479998    0.34564990    0.11810000
opls_146-1250    H    0.68378009    0.25393996    0.94778014    0.11510000
opls_146-1251    H    0.69660006    0.24417998    0.02361990    0.11200000
opls_146-1252    H    0.12802005    0.71244998    0.01575017    0.11210000
opls_146-1253    H    0.11642017    0.72248995    0.93923004    0.11560000
opls_146-1254    H    0.73809995    0.17716004    0.23097006    0.11210000
opls_146-1255    H    0.75458001    0.16491001    0.30352015    0.10950000
opls_146-1256    H    0.17438005    0.67428999    0.37466022    0.10810000
opls_146-1257    H    0.15819002    0.68640998    0.30225013    0.11580000
opls_146-1258    H    0.68887002    0.74884996    0.83358994    0.11190000
opls_146-1259    H    0.70748014    0.76174998    0.76540026    0.11770000
opls_146-1260    H    0.14364008    0.29572004    0.78922017    0.12340000
opls_146-1261    H    0.12633005    0.28250002    0.85792021    0.11580000
opls_146-1262    H    0.72401009    0.80118995    0.49848016    0.11490000
opls_146-1263    H    0.73523997    0.81043999    0.41942000    0.11300000
opls_146-1264    H    0.19549011    0.35172001    0.45613005    0.11480000
opls_146-1265    H    0.18364010    0.34233003    0.53690023    0.11040000
opls_146-1266    H    0.91305996    0.01588000    0.30198013    0.11230000
opls_146-1267    H    0.93744998    0.03990001    0.29724008    0.11140000
opls_146-1268    H    0.44855011    0.53865004    0.44959998    0.11600000
opls_146-1269    H    0.42414002    0.51478998    0.45365002    0.11620000
opls_146-1270    H    0.48088012    0.63324004    0.32125999    0.11610000
opls_146-1271    H    0.50388002    0.65696996    0.33218011    0.11640000
opls_146-1272    H    0.05770007    0.13789002    0.43743020    0.11010000
opls_146-1273    H    0.03500007    0.11465004    0.42761009    0.11210000
opls_146-1274    H    0.08909000    0.25434999    0.82342019    0.11230000
opls_146-1275    H    0.07613014    0.24451998    0.74770006    0.11200000
opls_146-1276    H    0.64362002    0.71222002    0.75694017    0.11810000
opls_146-1277    H    0.65527013    0.72227999    0.83337994    0.11330000
opls_146-1278    H    0.03758014    0.17542003    0.54152992    0.11170000
opls_146-1279    H    0.02191004    0.16288001    0.46919019    0.11090000
opls_146-1280    H    0.59883995    0.67634000    0.39456008    0.11020000
opls_146-1281    H    0.61424997    0.68877998    0.46692017    0.11230000
opls_146-1282    H    0.91902998    0.93284002    0.39798012    0.11360000
opls_146-1283    H    0.94108009    0.90827995    0.39901013    0.10920000
opls_146-1284    H    0.02029007    0.92685005    0.35128996    0.11380000
opls_146-1285    H    0.99912002    0.95146004    0.34969994    0.10590000
opls_144-1286    H    0.01174993    0.90368999    0.41142991    0.10040000
opls_146-1287    H    0.16697999    0.93790002    0.66834026    0.11460000
opls_146-1288    H    0.18885995    0.91387001    0.66936027    0.11110000
opls_146-1289    H    0.22615002    0.92106004    0.52977015    0.10970000
opls_146-1290    H    0.20496996    0.94570003    0.52741012    0.11930000
opls_144-1291    H    0.23928995    0.90381003    0.63524025    0.11430000
opls_146-1292    H    0.07525000    0.23977997    0.67384996    0.09800000
opls_146-1293    H    0.06051995    0.22886005    0.60106023    0.11600000
opls_146-1294    H    0.10691002    0.18952000    0.63195021    0.11520000
opls_146-1295    H    0.12116005    0.19965000    0.70615996    0.09470000
opls_144-1296    H    0.05657002    0.20737998    0.54754999    0.09540000
opls_146-1297    H    0.04702995    0.20388995    0.02082987    0.10590000
opls_146-1298    H    0.03182992    0.19267003    0.09757001    0.11240000
opls_146-1299    H    0.10549996    0.20976999    0.16350002    0.11010000
opls_146-1300    H    0.12127005    0.22113995    0.08741990    0.11630000
opls_144-1301    H    0.03909000    0.19819996    0.19590003    0.09270000
opls_146-1302    H    0.21090998    0.26821999    0.69393018    0.09270000
opls_146-1303    H    0.22518010    0.27964997    0.62105009    0.10880000
opls_146-1304    H    0.17763996    0.31841995    0.65860015    0.11130000
opls_146-1305    H    0.16353013    0.30784002    0.73376027    0.09800000
opls_144-1306    H    0.23034999    0.30121996    0.57311992    0.11620000
opls_146-1307    H    0.15024991    0.30022996    0.06665002    0.12220000
opls_146-1308    H    0.16463006    0.31036997    0.14079013    0.11220000
opls_146-1309    H    0.21270007    0.27144005    0.16990010    0.11200000
opls_146-1310    H    0.19788006    0.26051001    0.09730001    0.10360000
opls_144-1311    H    0.21540003    0.29238005    0.22486999    0.10170000
opls_146-1312    H    0.58262012    0.75106002    0.93728002    0.11220000
opls_146-1313    H    0.56402006    0.73788001    0.00845009    0.11230000
opls_146-1314    H    0.12773004    0.20440000    0.98599020    0.11600000
opls_146-1315    H    0.14648012    0.21791000    0.91591014    0.11480000
opls_146-1316    H    0.54662004    0.69833001    0.27208016    0.10940000
opls_146-1317    H    0.53746000    0.68892002    0.35206997    0.11300000
opls_146-1318    H    0.07955006    0.14844004    0.31376990    0.11040000
opls_146-1319    H    0.08950993    0.15798996    0.23249007    0.10880000
opls_146-1320    H    0.36017013    0.48409999    0.47403989    0.11330000
opls_146-1321    H    0.33607014    0.46015000    0.47862994    0.11060000
opls_146-1322    H    0.82447999    0.96197005    0.32594004    0.11810000
opls_146-1323    H    0.84915001    0.98533996    0.32235000    0.11360000
opls_146-1324    H    0.79252996    0.86672995    0.45330002    0.11580000
opls_146-1325    H    0.77055002    0.84280997    0.44055023    0.11110000
opls_146-1326    H    0.21759004    0.36175998    0.33384012    0.10930000
opls_146-1327    H    0.23918001    0.38520002    0.34564990    0.11810000
opls_146-1328    H    0.18378009    0.24606004    0.94778014    0.11510000
opls_146-1329    H    0.19660006    0.25582002    0.02361990    0.11200000
opls_146-1330    H    0.62802005    0.78755002    0.01575017    0.11210000
opls_146-1331    H    0.61642017    0.77751005    0.93923004    0.11560000
opls_146-1332    H    0.23809995    0.32283996    0.23097006    0.11200000
opls_146-1333    H    0.25458001    0.33508999    0.30352015    0.10950000
opls_146-1334    H    0.67438005    0.82571001    0.37466022    0.10810000
opls_146-1335    H    0.65819002    0.81359002    0.30225013    0.11580000
opls_146-1336    H    0.18887002    0.75115004    0.83358994    0.11190000
opls_146-1337    H    0.20748014    0.73825002    0.76540026    0.11770000
opls_146-1338    H    0.64364008    0.20427996    0.78922017    0.12340000
opls_146-1339    H    0.62633005    0.21749998    0.85792021    0.11580000
opls_146-1340    H    0.22401009    0.69881005    0.49848016    0.11490000
opls_146-1341    H    0.23523997    0.68956001    0.41942000    0.11310000
opls_146-1342    H    0.69549011    0.14827999    0.45613005    0.11480000
opls_146-1343    H    0.68364010    0.15766997    0.53690023    0.11040000
opls_146-1344    H    0.41305996    0.48412000    0.30198013    0.11240000
opls_146-1345    H    0.43744998    0.46009999    0.29724008    0.11130000
opls_146-1346    H    0.94855011    0.96134996    0.44959998    0.11600000
opls_146-1347    H    0.92414002    0.98521002    0.45365002    0.11610000
opls_146-1348    H    0.98088012    0.86675996    0.32125999    0.11610000
opls_146-1349    H    0.00388002    0.84303004    0.33218011    0.11640000
opls_146-1350    H    0.55770007    0.36210998    0.43743020    0.11010000
opls_146-1351    H    0.53500007    0.38534996    0.42761009    0.11210000
opls_146-1352    H    0.58909000    0.24565001    0.82342019    0.11230000
opls_146-1353    H    0.57613014    0.25548002    0.74770006    0.11200000
opls_146-1354    H    0.14362002    0.78777998    0.75694017    0.11810000
opls_146-1355    H    0.15527013    0.77772001    0.83337994    0.11330000
opls_146-1356    H    0.53758014    0.32457997    0.54152992    0.11170000
opls_146-1357    H    0.52191004    0.33711999    0.46919019    0.11090000
opls_146-1358    H    0.09883995    0.82366000    0.39456008    0.11020000
opls_146-1359    H    0.11424997    0.81122002    0.46692017    0.11230000
opls_146-1360    H    0.41902998    0.56715998    0.39798012    0.11360000
opls_146-1361    H    0.44108009    0.59172005    0.39901013    0.10920000
opls_146-1362    H    0.52029007    0.57314995    0.35128996    0.11380000
opls_146-1363    H    0.49912002    0.54853996    0.34969994    0.10590000
opls_144-1364    H    0.51174993    0.59631001    0.41142991    0.10040000
opls_146-1365    H    0.66697999    0.56209998    0.66834026    0.11460000
opls_146-1366    H    0.68885995    0.58612999    0.66936027    0.11110000
opls_146-1367    H    0.72615002    0.57893996    0.52977015    0.10970000
opls_146-1368    H    0.70496996    0.55429997    0.52741012    0.11930000
opls_144-1369    H    0.73928995    0.59618997    0.63524025    0.11430000
opls_146-1370    H    0.57525000    0.26022003    0.67384996    0.09800000
opls_146-1371    H    0.56051995    0.27113995    0.60106023    0.11600000
opls_146-1372    H    0.60691002    0.31048000    0.63195021    0.11510000
opls_146-1373    H    0.62116005    0.30035000    0.70615996    0.09470000
opls_144-1374    H    0.55657002    0.29262002    0.54754999    0.09540000
opls_146-1375    H    0.54702995    0.29611005    0.02082987    0.10590000
opls_146-1376    H    0.53182992    0.30732997    0.09757001    0.11240000
opls_146-1377    H    0.60549996    0.29023001    0.16350002    0.11020000
opls_146-1378    H    0.62127005    0.27886005    0.08741990    0.11630000
opls_144-1379    H    0.53909000    0.30180004    0.19590003    0.09270000
opls_146-1380    H    0.71090998    0.23178001    0.69393018    0.09270000
opls_146-1381    H    0.72518010    0.22035003    0.62105009    0.10890000
opls_146-1382    H    0.67763996    0.18158005    0.65860015    0.11130000
opls_146-1383    H    0.66353013    0.19215998    0.73376027    0.09800000
opls_144-1384    H    0.73034999    0.19878004    0.57311992    0.11630000
opls_146-1385    H    0.65024991    0.19977004    0.06665002    0.12220000
opls_146-1386    H    0.66463006    0.18963003    0.14079013    0.11220000
opls_146-1387    H    0.71270007    0.22855995    0.16990010    0.11190000
opls_146-1388    H    0.69788006    0.23948999    0.09730001    0.10360000
opls_144-1389    H    0.71540003    0.20761995    0.22486999    0.10170000
opls_146-1390    H    0.41738009    0.75106002    0.06271998    0.11220000
opls_146-1391    H    0.43597994    0.73788001    0.99154991    0.11230000
opls_146-1392    H    0.87226995    0.20440000    0.01401016    0.11600000
opls_146-1393    H    0.85352009    0.21791000    0.08408986    0.11480000
opls_146-1394    H    0.45338016    0.69833001    0.72792020    0.10930000
opls_146-1395    H    0.46254000    0.68892002    0.64793003    0.11300000
opls_146-1396    H    0.92045015    0.14844004    0.68623010    0.11040000
opls_146-1397    H    0.91049007    0.15798996    0.76750993    0.10880000
opls_146-1398    H    0.63983009    0.48409999    0.52596011    0.11330000
opls_146-1399    H    0.66393007    0.46015000    0.52137006    0.11060000
opls_146-1400    H    0.17552001    0.96197005    0.67405996    0.11490000
opls_146-1401    H    0.15084999    0.98533996    0.67765000    0.11360000
opls_146-1402    H    0.20747004    0.86672995    0.54669998    0.11600000
opls_146-1403    H    0.22944998    0.84280997    0.55945012    0.11100000
opls_146-1404    H    0.78240995    0.36175998    0.66616023    0.10930000
opls_146-1405    H    0.76081999    0.38520002    0.65435010    0.11820000
opls_146-1406    H    0.81621991    0.24606004    0.05221986    0.11520000
opls_146-1407    H    0.80340015    0.25582002    0.97638010    0.11200000
opls_146-1408    H    0.37198015    0.78755002    0.98425018    0.11210000
opls_146-1409    H    0.38358005    0.77751005    0.06076996    0.11560000
opls_146-1410    H    0.76190005    0.32283996    0.76902994    0.11200000
opls_146-1411    H    0.74541998    0.33508999    0.69648021    0.10950000
opls_146-1412    H    0.32561995    0.82571001    0.62534014    0.10810000
opls_146-1413    H    0.34180997    0.81359002    0.69775023    0.11580000
opls_146-1414    H    0.81112998    0.75115004    0.16641006    0.11190000
opls_146-1415    H    0.79252007    0.73825002    0.23460010    0.11770000
opls_146-1416    H    0.35635991    0.20427996    0.21078019    0.12340000
opls_146-1417    H    0.37366994    0.21749998    0.14208014    0.11580000
opls_146-1418    H    0.77599011    0.69881005    0.50152020    0.11490000
opls_146-1419    H    0.76476003    0.68956001    0.58058000    0.11300000
opls_146-1420    H    0.30451010    0.14827999    0.54386995    0.11480000
opls_146-1421    H    0.31636011    0.15766997    0.46310013    0.11040000
opls_146-1422    H    0.58694003    0.48412000    0.69802023    0.11230000
opls_146-1423    H    0.56255002    0.46009999    0.70275992    0.11130000
opls_146-1424    H    0.05145010    0.96134996    0.55040002    0.11620000
opls_146-1425    H    0.07585998    0.98521002    0.54634998    0.11610000
opls_146-1426    H    0.01912009    0.86675996    0.67874001    0.11610000
opls_146-1427    H    0.99611997    0.84303004    0.66782025    0.11640000
opls_146-1428    H    0.44230013    0.36210998    0.56257016    0.11010000
opls_146-1429    H    0.46500015    0.38534996    0.57238991    0.11210000
opls_146-1430    H    0.41091000    0.24565001    0.17658017    0.11230000
opls_146-1431    H    0.42387007    0.25548002    0.25229994    0.11200000
opls_146-1432    H    0.85637997    0.78777998    0.24306019    0.11810000
opls_146-1433    H    0.84473008    0.77772001    0.16662006    0.11340000
opls_146-1434    H    0.46242007    0.32457997    0.45847008    0.11170000
opls_146-1435    H    0.47808996    0.33711999    0.53081016    0.11090000
opls_146-1436    H    0.90116005    0.82366000    0.60543992    0.11010000
opls_146-1437    H    0.88575003    0.81122002    0.53308019    0.11230000
opls_146-1438    H    0.58097001    0.56715998    0.60202024    0.11360000
opls_146-1439    H    0.55892011    0.59172005    0.60099023    0.10920000
opls_146-1440    H    0.47971014    0.57314995    0.64871004    0.11380000
opls_146-1441    H    0.50087998    0.54853996    0.65030006    0.10590000
opls_144-1442    H    0.48825007    0.59631001    0.58857009    0.10000000
opls_146-1443    H    0.33302000    0.56209998    0.33166010    0.11460000
opls_146-1444    H    0.31114005    0.58612999    0.33064009    0.11110000
opls_146-1445    H    0.27384998    0.57893996    0.47023021    0.10970000
opls_146-1446    H    0.29503004    0.55429997    0.47259023    0.11930000
opls_144-1447    H    0.26071004    0.59618997    0.36476011    0.11430000
opls_146-1448    H    0.42475000    0.26022003    0.32615004    0.09800000
opls_146-1449    H    0.43948004    0.27113995    0.39894013    0.11600000
opls_146-1450    H    0.39308997    0.31048000    0.36805015    0.11510000
opls_146-1451    H    0.37883995    0.30035000    0.29384004    0.09470000
opls_144-1452    H    0.44342998    0.29262002    0.45245001    0.09540000
opls_146-1453    H    0.45297005    0.29611005    0.97917013    0.10590000
opls_146-1454    H    0.46817008    0.30732997    0.90242999    0.11240000
opls_146-1455    H    0.39450004    0.29023001    0.83649998    0.11010000
opls_146-1456    H    0.37873016    0.27886005    0.91258010    0.11630000
opls_144-1457    H    0.46091000    0.30180004    0.80409997    0.09270000
opls_146-1458    H    0.28909002    0.23178001    0.30607017    0.09270000
opls_146-1459    H    0.27482011    0.22035003    0.37894991    0.10880000
opls_146-1460    H    0.32236003    0.18158005    0.34140021    0.11130000
opls_146-1461    H    0.33647008    0.19215998    0.26624009    0.09800000
opls_144-1462    H    0.26965001    0.19878004    0.42688008    0.11620000
opls_146-1463    H    0.34975009    0.19977004    0.93334998    0.12220000
opls_146-1464    H    0.33537014    0.18963003    0.85921023    0.11220000
opls_146-1465    H    0.28730014    0.22855995    0.83010026    0.11190000
opls_146-1466    H    0.30212015    0.23948999    0.90269999    0.10360000
opls_144-1467    H    0.28459997    0.20761995    0.77513001    0.10170000
opls_146-1468    H    0.41738009    0.24893998    0.06271998    0.11220000
opls_146-1469    H    0.43597994    0.26211999    0.99154991    0.11230000
opls_146-1470    H    0.87226995    0.79560000    0.01401016    0.11600000
opls_146-1471    H    0.85352009    0.78209000    0.08408986    0.11480000
opls_146-1472    H    0.45338016    0.30166999    0.72792020    0.10930000
opls_146-1473    H    0.46254000    0.31107998    0.64793003    0.11300000
opls_146-1474    H    0.92045015    0.85155996    0.68623010    0.11040000
opls_146-1475    H    0.91049007    0.84201004    0.76750993    0.10890000
opls_146-1476    H    0.63983009    0.51590001    0.52596011    0.11330000
opls_146-1477    H    0.66393007    0.53985000    0.52137006    0.11060000
opls_146-1478    H    0.17552001    0.03802995    0.67405996    0.11490000
opls_146-1479    H    0.15084999    0.01466004    0.67765000    0.11360000
opls_146-1480    H    0.20747004    0.13327005    0.54669998    0.11600000
opls_146-1481    H    0.22944998    0.15719003    0.55945012    0.11100000
opls_146-1482    H    0.78240995    0.63824002    0.66616023    0.10930000
opls_146-1483    H    0.76081999    0.61479998    0.65435010    0.11810000
opls_146-1484    H    0.81621991    0.75393996    0.05221986    0.11510000
opls_146-1485    H    0.80340015    0.74417998    0.97638010    0.11200000
opls_146-1486    H    0.37198015    0.21244998    0.98425018    0.11220000
opls_146-1487    H    0.38358005    0.22248995    0.06076996    0.11560000
opls_146-1488    H    0.76190005    0.67716004    0.76902994    0.11200000
opls_146-1489    H    0.74541998    0.66491001    0.69648021    0.10950000
opls_146-1490    H    0.32561995    0.17428999    0.62534014    0.10810000
opls_146-1491    H    0.34180997    0.18640998    0.69775023    0.11590000
opls_146-1492    H    0.81112998    0.24884996    0.16641006    0.11190000
opls_146-1493    H    0.79252007    0.26174998    0.23460010    0.11780000
opls_146-1494    H    0.35635991    0.79572004    0.21078019    0.12340000
opls_146-1495    H    0.37366994    0.78250002    0.14208014    0.11580000
opls_146-1496    H    0.77599011    0.30118995    0.50152020    0.11490000
opls_146-1497    H    0.76476003    0.31043999    0.58058000    0.11300000
opls_146-1498    H    0.30451010    0.85172001    0.54386995    0.11480000
opls_146-1499    H    0.31636011    0.84233003    0.46310013    0.11040000
opls_146-1500    H    0.58694003    0.51588000    0.69802023    0.11230000
opls_146-1501    H    0.56255002    0.53990001    0.70275992    0.11130000
opls_146-1502    H    0.05145010    0.03865004    0.55040002    0.11600000
opls_146-1503    H    0.07585998    0.01478998    0.54634998    0.11610000
opls_146-1504    H    0.01912009    0.13324004    0.67874001    0.11610000
opls_146-1505    H    0.99611997    0.15696996    0.66782025    0.11640000
opls_146-1506    H    0.44230013    0.63789002    0.56257016    0.11010000
opls_146-1507    H    0.46500015    0.61465004    0.57238991    0.11210000
opls_146-1508    H    0.41091000    0.75434999    0.17658017    0.11230000
opls_146-1509    H    0.42387007    0.74451998    0.25229994    0.11200000
opls_146-1510    H    0.85637997    0.21222002    0.24306019    0.11810000
opls_146-1511    H    0.84473008    0.22227999    0.16662006    0.11330000
opls_146-1512    H    0.46242007    0.67542003    0.45847008    0.11170000
opls_146-1513    H    0.47808996    0.66288001    0.53081016    0.11090000
opls_146-1514    H    0.90116005    0.17634000    0.60543992    0.11010000
opls_146-1515    H    0.88575003    0.18877998    0.53308019    0.11230000
opls_146-1516    H    0.58097001    0.43284002    0.60202024    0.11360000
opls_146-1517    H    0.55892011    0.40827995    0.60099023    0.10920000
opls_146-1518    H    0.47971014    0.42685005    0.64871004    0.11380000
opls_146-1519    H    0.50087998    0.45146004    0.65030006    0.10600000
opls_144-1520    H    0.48825007    0.40368999    0.58857009    0.10000000
opls_146-1521    H    0.33302000    0.43790002    0.33166010    0.11470000
opls_146-1522    H    0.31114005    0.41387001    0.33064009    0.11110000
opls_146-1523    H    0.27384998    0.42106004    0.47023021    0.10970000
opls_146-1524    H    0.29503004    0.44570003    0.47259023    0.11930000
opls_144-1525    H    0.26071004    0.40381003    0.36476011    0.11430000
opls_146-1526    H    0.42475000    0.73977997    0.32615004    0.09800000
opls_146-1527    H    0.43948004    0.72886005    0.39894013    0.11600000
opls_146-1528    H    0.39308997    0.68952000    0.36805015    0.11510000
opls_146-1529    H    0.37883995    0.69965000    0.29384004    0.09470000
opls_144-1530    H    0.44342998    0.70737998    0.45245001    0.09540000
opls_146-1531    H    0.45297005    0.70388995    0.97917013    0.10590000
opls_146-1532    H    0.46817008    0.69267003    0.90242999    0.11240000
opls_146-1533    H    0.39450004    0.70976999    0.83649998    0.11010000
opls_146-1534    H    0.37873016    0.72113995    0.91258010    0.11630000
opls_144-1535    H    0.46091000    0.69819996    0.80409997    0.09270000
opls_146-1536    H    0.28909002    0.76821999    0.30607017    0.09270000
opls_146-1537    H    0.27482011    0.77964997    0.37894991    0.10890000
opls_146-1538    H    0.32236003    0.81841995    0.34140021    0.11130000
opls_146-1539    H    0.33647008    0.80784002    0.26624009    0.09800000
opls_144-1540    H    0.26965001    0.80121996    0.42688008    0.11620000
opls_146-1541    H    0.34975009    0.80022996    0.93334998    0.12220000
opls_146-1542    H    0.33537014    0.81036997    0.85921023    0.11220000
opls_146-1543    H    0.28730014    0.77144005    0.83010026    0.11200000
opls_146-1544    H    0.30212015    0.76051001    0.90269999    0.10360000
opls_144-1545    H    0.28459997    0.79238005    0.77513001    0.10170000
opls_146-1546    H    0.58262012    0.24893998    0.93728002    0.11220000
opls_146-1547    H    0.56402006    0.26211999    0.00845009    0.11230000
opls_146-1548    H    0.12773004    0.79560000    0.98599020    0.11600000
opls_146-1549    H    0.14648012    0.78209000    0.91591014    0.11480000
opls_146-1550    H    0.54662004    0.30166999    0.27208016    0.10930000
opls_146-1551    H    0.53746000    0.31107998    0.35206997    0.11300000
opls_146-1552    H    0.07955006    0.85155996    0.31376990    0.11040000
opls_146-1553    H    0.08950993    0.84201004    0.23249007    0.10880000
opls_146-1554    H    0.36017013    0.51590001    0.47403989    0.11340000
opls_146-1555    H    0.33607014    0.53985000    0.47862994    0.11060000
opls_146-1556    H    0.82447999    0.03802995    0.32594004    0.11810000
opls_146-1557    H    0.84915001    0.01466004    0.32235000    0.11370000
opls_146-1558    H    0.79252996    0.13327005    0.45330002    0.11580000
opls_146-1559    H    0.77055002    0.15719003    0.44055023    0.11100000
opls_146-1560    H    0.21759004    0.63824002    0.33384012    0.10930000
opls_146-1561    H    0.23918001    0.61479998    0.34564990    0.11810000
opls_146-1562    H    0.18378009    0.75393996    0.94778014    0.11510000
opls_146-1563    H    0.19660006    0.74417998    0.02361990    0.11200000
opls_146-1564    H    0.62802005    0.21244998    0.01575017    0.11210000
opls_146-1565    H    0.61642017    0.22248995    0.93923004    0.11560000
opls_146-1566    H    0.23809995    0.67716004    0.23097006    0.11200000
opls_146-1567    H    0.25458001    0.66491001    0.30352015    0.10950000
opls_146-1568    H    0.67438005    0.17428999    0.37466022    0.10810000
opls_146-1569    H    0.65819002    0.18640998    0.30225013    0.11580000
opls_146-1570    H    0.18887002    0.24884996    0.83358994    0.11190000
opls_146-1571    H    0.20748014    0.26174998    0.76540026    0.11770000
opls_146-1572    H    0.64364008    0.79572004    0.78922017    0.12340000
opls_146-1573    H    0.62633005    0.78250002    0.85792021    0.11580000
opls_146-1574    H    0.22401009    0.30118995    0.49848016    0.11490000
opls_146-1575    H    0.23523997    0.31043999    0.41942000    0.11300000
opls_146-1576    H    0.69549011    0.85172001    0.45613005    0.11480000
opls_146-1577    H    0.68364010    0.84233003    0.53690023    0.11040000
opls_146-1578    H    0.41305996    0.51588000    0.30198013    0.11240000
opls_146-1579    H    0.43744998    0.53990001    0.29724008    0.11130000
opls_146-1580    H    0.94855011    0.03865004    0.44959998    0.11620000
opls_146-1581    H    0.92414002    0.01478998    0.45365002    0.11610000
opls_146-1582    H    0.98088012    0.13324004    0.32125999    0.11610000
opls_146-1583    H    0.00388002    0.15696996    0.33218011    0.11650000
opls_146-1584    H    0.55770007    0.63789002    0.43743020    0.11010000
opls_146-1585    H    0.53500007    0.61465004    0.42761009    0.11210000
opls_146-1586    H    0.58909000    0.75434999    0.82342019    0.11230000
opls_146-1587    H    0.57613014    0.74451998    0.74770006    0.11200000
opls_146-1588    H    0.14362002    0.21222002    0.75694017    0.11810000
opls_146-1589    H    0.15527013    0.22227999    0.83337994    0.11330000
opls_146-1590    H    0.53758014    0.67542003    0.54152992    0.11170000
opls_146-1591    H    0.52191004    0.66288001    0.46919019    0.11090000
opls_146-1592    H    0.09883995    0.17634000    0.39456008    0.11010000
opls_146-1593    H    0.11424997    0.18877998    0.46692017    0.11230000
opls_146-1594    H    0.41902998    0.43284002    0.39798012    0.11360000
opls_146-1595    H    0.44108009    0.40827995    0.39901013    0.10920000
opls_146-1596    H    0.52029007    0.42685005    0.35128996    0.11380000
opls_146-1597    H    0.49912002    0.45146004    0.34969994    0.10590000
opls_144-1598    H    0.51174993    0.40368999    0.41142991    0.10040000
opls_146-1599    H    0.66697999    0.43790002    0.66834026    0.11460000
opls_146-1600    H    0.68885995    0.41387001    0.66936027    0.11110000
opls_146-1601    H    0.72615002    0.42106004    0.52977015    0.10980000
opls_146-1602    H    0.70496996    0.44570003    0.52741012    0.11930000
opls_144-1603    H    0.73928995    0.40381003    0.63524025    0.11430000
opls_146-1604    H    0.57525000    0.73977997    0.67384996    0.09800000
opls_146-1605    H    0.56051995    0.72886005    0.60106023    0.11600000
opls_146-1606    H    0.60691002    0.68952000    0.63195021    0.11510000
opls_146-1607    H    0.62116005    0.69965000    0.70615996    0.09470000
opls_144-1608    H    0.55657002    0.70737998    0.54754999    0.09540000
opls_146-1609    H    0.54702995    0.70388995    0.02082987    0.10590000
opls_146-1610    H    0.53182992    0.69267003    0.09757001    0.11240000
opls_146-1611    H    0.60549996    0.70976999    0.16350002    0.11010000
opls_146-1612    H    0.62127005    0.72113995    0.08741990    0.11630000
opls_144-1613    H    0.53909000    0.69819996    0.19590003    0.09270000
opls_146-1614    H    0.71090998    0.76821999    0.69393018    0.09270000
opls_146-1615    H    0.72518010    0.77964997    0.62105009    0.10880000
opls_146-1616    H    0.67763996    0.81841995    0.65860015    0.11130000
opls_146-1617    H    0.66353013    0.80784002    0.73376027    0.09800000
opls_144-1618    H    0.73034999    0.80121996    0.57311992    0.11620000
opls_146-1619    H    0.65024991    0.80022996    0.06665002    0.12220000
opls_146-1620    H    0.66463006    0.81036997    0.14079013    0.11220000
opls_146-1621    H    0.71270007    0.77144005    0.16990010    0.11200000
opls_146-1622    H    0.69788006    0.76051001    0.09730001    0.10360000
opls_144-1623    H    0.71540003    0.79238005    0.22486999    0.10170000
