#======================================================================
# Crystal Data Generated By AuToFF
#----------------------------------------------------------------------

data_AuToFF_phase_1

_cell_length_a                         66.3800
_cell_length_b                         37.6500
_cell_length_c                         14.6100
_cell_angle_alpha                      90.00
_cell_angle_beta                       104.50
_cell_angle_gamma                      90.00
_symmetry_space_group_name_H-M_alt     'P 1'
_symmetry_space_group_IT_number        1

loop_
_space_group_symop_operation_xyz
   'x, y, z'

loop_
   _atom_site_label
   _atom_site_type_symbol
   _atom_site_fract_x
   _atom_site_fract_y
   _atom_site_fract_z
   _atom_site_charge
opls_700-0    C    0.27378002    0.29307012    0.74342012    0.07440000
opls_145-1    C    0.29346992    0.28244011    0.79805990    -0.07370000
opls_145-2    C    0.31156000    0.29941009    0.78815014    -0.06800000
opls_700-3    C    0.31044000    0.32772988    0.72437969    0.08550000
opls_145-4    C    0.29085002    0.33836999    0.66946985    -0.07730000
opls_145-5    C    0.27265996    0.32121992    0.67860971    -0.07580000
opls_145-6    C    0.95805994    0.91461992    0.59160997    -0.07160000
opls_700-7    C    0.94983994    0.92456999    0.66751010    0.08540000
opls_145-8    C    0.96210992    0.94493997    0.74110971    -0.07360000
opls_145-9    C    0.98210994    0.95593997    0.73791981    -0.07730000
opls_700-10    C    0.99019000    0.94667995    0.66075984    0.07110000
opls_145-11    C    0.97797996    0.92572005    0.58807011    -0.07360000
opls_700-12    C    0.26709991    0.92287012    0.77714951    0.07100000
opls_145-13    C    0.27873994    0.93244011    0.71276964    -0.07580000
opls_145-14    C    0.29804000    0.91612005    0.71689983    -0.07590000
opls_700-15    C    0.30606989    0.88978008    0.78487964    0.07560000
opls_145-16    C    0.29413994    0.87980000    0.84745953    -0.07350000
opls_145-17    C    0.27494995    0.89613997    0.84395997    -0.07730000
opls_716-18    C    0.14243004    0.23255989    0.72345001    -0.14110000
opls_716-19    C    0.12196003    0.23215989    0.72560984    -0.13340000
opls_543-20    C    0.11612002    0.19678991    0.72373988    0.25380000
opls_543-21    C    0.14851001    0.19741992    0.72043969    0.25380000
opls_700-22    C    0.16846994    0.18710996    0.71480009    -0.08320000
opls_700-23    C    0.09571995    0.18580000    0.72091973    -0.05840000
opls_716-24    C    0.12313004    0.01161009    0.72440020    -0.13410000
opls_716-25    C    0.14364005    0.01190013    0.72345001    -0.13470000
opls_543-26    C    0.14936004    0.04712988    0.72040010    0.25380000
opls_543-27    C    0.11691001    0.04672988    0.72209968    0.25380000
opls_700-28    C    0.16930001    0.05806003    0.71584996    -0.05830000
opls_700-29    C    0.09642005    0.05707012    0.71963019    -0.06500000
opls_716-30    C    0.06880002    0.13821009    0.71812998    -0.13680000
opls_716-31    C    0.06897002    0.10347012    0.71705961    -0.13800000
opls_543-32    C    0.09015998    0.09261992    0.71758984    0.22460000
opls_543-33    C    0.08991000    0.14995989    0.71882989    0.22470000
opls_716-34    C    0.19569994    0.10566003    0.71349006    -0.11980000
opls_716-35    C    0.19551991    0.14038991    0.71374952    -0.13660000
opls_543-36    C    0.17435992    0.15132988    0.71415957    0.22260000
opls_543-37    C    0.17472002    0.09395989    0.71385981    0.22040000
opls_142-38    C    0.25485995    0.27433997    0.75535963    0.01940000
opls_145-39    C    0.21864990    0.25764993    0.69763953    0.23660000
opls_145-40    C    0.20658997    0.24112988    0.61630978    -0.12830000
opls_145-41    C    0.18960993    0.21972988    0.62108968    -0.07360000
opls_700-42    C    0.18428002    0.21464993    0.70735982    0.08440000
opls_145-43    C    0.19555999    0.23310013    0.78780018    -0.07580000
opls_145-44    C    0.21240000    0.25503001    0.78235996    -0.12860000
opls_700-45    C    0.18572004    0.03069004    0.71453003    0.08460000
opls_700-46    C    0.08005002    0.02972988    0.71898967    0.08530000
opls_700-47    C    0.07895996    0.21244993    0.71965989    0.08740000
opls_145-48    C    0.19591999    0.01284993    0.79771984    -0.07730000
opls_145-49    C    0.21286996    0.99026003    0.79926955    -0.11000000
opls_145-50    C    0.22009991    0.98518991    0.71725968    0.22460000
opls_145-51    C    0.20968992    0.00269987    0.63398998    -0.12860000
opls_145-52    C    0.19257003    0.02483001    0.63225999    -0.07350000
opls_145-53    C    0.06589004    0.02076999    0.63363012    -0.07140000
opls_145-54    C    0.04774005    0.00181992    0.63315008    -0.12860000
opls_145-55    C    0.04319995    0.99178008    0.71865951    0.23550000
opls_145-56    C    0.05755994    0.00015007    0.80388967    -0.12830000
opls_145-57    C    0.07589994    0.01867012    0.80419014    -0.07360000
opls_145-58    C    0.06302003    0.21706003    0.63688012    -0.07360000
opls_145-59    C    0.04433003    0.23375007    0.63997953    -0.12830000
opls_145-60    C    0.04134000    0.24703001    0.72527968    0.22900000
opls_145-61    C    0.05782992    0.24441009    0.80737014    -0.11000000
opls_145-62    C    0.07643993    0.22710996    0.80457969    -0.07730000
opls_142-63    C    0.01614996    0.28012988    0.79000950    0.01640000
opls_142-64    C    0.01089998    0.95930013    0.65299011    0.01640000
opls_142-65    C    0.24720990    0.94086003    0.77945992    0.01950000
opls_145-66    C    0.96879996    0.32635989    0.83680956    -0.06840000
opls_700-67    C    0.95238001    0.30503001    0.78582983    0.07670000
opls_145-68    C    0.95698001    0.27560000    0.73570978    -0.07350000
opls_145-69    C    0.97766994    0.26747995    0.73644999    -0.07730000
opls_700-70    C    0.99413994    0.28886003    0.78680970    0.07110000
opls_145-71    C    0.98948998    0.31821992    0.83732990    -0.07730000
opls_700-72    C    0.57058006    0.41086003    0.32217009    0.03510000
opls_700-73    C    0.57818996    0.37786003    0.36390958    -0.00240000
opls_700-74    C    0.59829997    0.36552988    0.35951993    0.02150000
opls_700-75    C    0.61069004    0.38635989    0.31395002    -0.07400000
opls_166-76    C    0.60242004    0.41830013    0.26983013    0.33040000
opls_145-77    C    0.58303006    0.43090013    0.27722020    -0.17130000
opls_700-78    C    0.63032992    0.37084993    0.29772974    -0.00430000
opls_166-79    C    0.64905993    0.38836999    0.34051980    0.08800000
opls_145-80    C    0.66817999    0.37556999    0.33061004    -0.13240000
opls_700-81    C    0.66945002    0.34404011    0.28179013    0.03510000
opls_700-82    C    0.65093992    0.32449004    0.24344982    -0.00290000
opls_700-83    C    0.63131996    0.33795007    0.25200005    0.02060000
opls_145-84    C    0.56622992    0.35681009    0.41054986    -0.13910000
opls_263-85    C    0.57348993    0.32398008    0.44920974    0.15770000
opls_145-86    C    0.59282997    0.31155007    0.44219012    -0.10510000
opls_145-87    C    0.60518004    0.33207012    0.39829999    -0.07160000
opls_145-88    C    0.61322005    0.31764993    0.21649968    -0.07160000
opls_145-89    C    0.61432992    0.28492005    0.17326987    -0.10740000
opls_263-90    C    0.63341006    0.27180000    0.16440998    0.15770000
opls_145-91    C    0.65157000    0.29135007    0.19931013    -0.12710000
opls_700-92    C    0.82741001    0.37516999    0.78621018    0.04560000
opls_700-93    C    0.84018997    0.39616999    0.74280010    -0.00160000
opls_700-94    C    0.86028997    0.38361009    0.73896967    0.02060000
opls_700-95    C    0.86741003    0.35007012    0.77803960    -0.07390000
opls_166-96    C    0.85475996    0.33041992    0.82404996    0.34690000
opls_145-97    C    0.83478002    0.34223001    0.82466008    -0.17130000
opls_700-98    C    0.88958000    0.33953997    0.78595991    -0.00430000
opls_166-99    C    0.89290004    0.30889004    0.73644009    0.08800000
opls_145-100    C    0.91303000    0.29732005    0.73838005    -0.13240000
opls_700-101    C    0.93049000    0.31670996    0.78574004    0.04500000
opls_700-102    C    0.92755995    0.34907012    0.83084971    -0.00310000
opls_700-103    C    0.90697992    0.36055989    0.83041986    0.02060000
opls_145-104    C    0.83336994    0.42949987    0.70250993    -0.13910000
opls_263-105    C    0.84617001    0.45050996    0.66223955    0.15770000
opls_145-106    C    0.86600998    0.43864011    0.66129007    -0.10510000
opls_145-107    C    0.87300999    0.40552988    0.69875020    -0.07160000
opls_145-108    C    0.90430997    0.39330013    0.87261959    -0.07160000
opls_145-109    C    0.92145997    0.41427012    0.91460016    -0.10740000
opls_263-110    C    0.94154990    0.40307012    0.91555953    0.15770000
opls_145-111    C    0.94458991    0.37081009    0.87392963    -0.12740000
opls_700-112    C    0.77378002    0.79307012    0.74342012    0.07440000
opls_145-113    C    0.79346992    0.78244011    0.79805990    -0.07370000
opls_145-114    C    0.81156000    0.79941009    0.78815014    -0.06800000
opls_700-115    C    0.81044000    0.82772988    0.72437969    0.08550000
opls_145-116    C    0.79085002    0.83836999    0.66946985    -0.07730000
opls_145-117    C    0.77265996    0.82121992    0.67860971    -0.07580000
opls_145-118    C    0.45805994    0.41461992    0.59160997    -0.07160000
opls_700-119    C    0.44983994    0.42456999    0.66751010    0.08540000
opls_145-120    C    0.46210992    0.44493997    0.74110971    -0.07360000
opls_145-121    C    0.48210994    0.45593997    0.73791981    -0.07730000
opls_700-122    C    0.49019000    0.44667995    0.66075984    0.07110000
opls_145-123    C    0.47797996    0.42572005    0.58807011    -0.07360000
opls_700-124    C    0.76709991    0.42287012    0.77714951    0.07100000
opls_145-125    C    0.77873994    0.43244011    0.71276964    -0.07580000
opls_145-126    C    0.79804000    0.41612005    0.71689983    -0.07590000
opls_700-127    C    0.80606989    0.38978008    0.78487964    0.07560000
opls_145-128    C    0.79413994    0.37980000    0.84745953    -0.07350000
opls_145-129    C    0.77494995    0.39613997    0.84395997    -0.07730000
opls_716-130    C    0.64243004    0.73255989    0.72345001    -0.14110000
opls_716-131    C    0.62196003    0.73215989    0.72560984    -0.13340000
opls_543-132    C    0.61612002    0.69678991    0.72373988    0.25380000
opls_543-133    C    0.64851001    0.69741992    0.72043969    0.25380000
opls_700-134    C    0.66846994    0.68710996    0.71480009    -0.08320000
opls_700-135    C    0.59571995    0.68580000    0.72091973    -0.05840000
opls_716-136    C    0.62313004    0.51161009    0.72440020    -0.13410000
opls_716-137    C    0.64364005    0.51190013    0.72345001    -0.13470000
opls_543-138    C    0.64936004    0.54712988    0.72040010    0.25380000
opls_543-139    C    0.61691001    0.54672988    0.72209968    0.25380000
opls_700-140    C    0.66930001    0.55806003    0.71584996    -0.05830000
opls_700-141    C    0.59642005    0.55707012    0.71963019    -0.06500000
opls_716-142    C    0.56880002    0.63821009    0.71812998    -0.13680000
opls_716-143    C    0.56897002    0.60347012    0.71705961    -0.13800000
opls_543-144    C    0.59015998    0.59261992    0.71758984    0.22460000
opls_543-145    C    0.58991000    0.64995989    0.71882989    0.22470000
opls_716-146    C    0.69569994    0.60566003    0.71349006    -0.11980000
opls_716-147    C    0.69551991    0.64038991    0.71374952    -0.13660000
opls_543-148    C    0.67435992    0.65132988    0.71415957    0.22260000
opls_543-149    C    0.67472002    0.59395989    0.71385981    0.22040000
opls_142-150    C    0.75485995    0.77433997    0.75535963    0.01940000
opls_145-151    C    0.71864990    0.75764993    0.69763953    0.23660000
opls_145-152    C    0.70658997    0.74112988    0.61630978    -0.12830000
opls_145-153    C    0.68960993    0.71972988    0.62108968    -0.07360000
opls_700-154    C    0.68428002    0.71464993    0.70735982    0.08440000
opls_145-155    C    0.69555999    0.73309987    0.78780018    -0.07580000
opls_145-156    C    0.71240000    0.75503001    0.78235996    -0.12860000
opls_700-157    C    0.68572004    0.53069004    0.71453003    0.08460000
opls_700-158    C    0.58005002    0.52972988    0.71898967    0.08530000
opls_700-159    C    0.57895996    0.71244993    0.71965989    0.08740000
opls_145-160    C    0.69591999    0.51284993    0.79771984    -0.07730000
opls_145-161    C    0.71286996    0.49026003    0.79926955    -0.11000000
opls_145-162    C    0.72009991    0.48518991    0.71725968    0.22460000
opls_145-163    C    0.70968992    0.50270013    0.63398998    -0.12860000
opls_145-164    C    0.69257003    0.52483001    0.63225999    -0.07350000
opls_145-165    C    0.56589004    0.52076999    0.63363012    -0.07140000
opls_145-166    C    0.54774005    0.50181992    0.63315008    -0.12860000
opls_145-167    C    0.54319995    0.49178008    0.71865951    0.23550000
opls_145-168    C    0.55755994    0.50015007    0.80388967    -0.12830000
opls_145-169    C    0.57589994    0.51867012    0.80419014    -0.07360000
opls_145-170    C    0.56302003    0.71706003    0.63688012    -0.07360000
opls_145-171    C    0.54433003    0.73375007    0.63997953    -0.12830000
opls_145-172    C    0.54134000    0.74703001    0.72527968    0.22900000
opls_145-173    C    0.55782992    0.74441009    0.80737014    -0.11000000
opls_145-174    C    0.57643993    0.72710996    0.80457969    -0.07730000
opls_142-175    C    0.51614996    0.78012988    0.79000950    0.01640000
opls_142-176    C    0.51089998    0.45930013    0.65299011    0.01640000
opls_142-177    C    0.74720990    0.44086003    0.77945992    0.01950000
opls_145-178    C    0.46879996    0.82635989    0.83680956    -0.06840000
opls_700-179    C    0.45238001    0.80503001    0.78582983    0.07670000
opls_145-180    C    0.45698001    0.77560000    0.73570978    -0.07350000
opls_145-181    C    0.47766994    0.76747995    0.73644999    -0.07730000
opls_700-182    C    0.49413994    0.78886003    0.78680970    0.07110000
opls_145-183    C    0.48948998    0.81821992    0.83732990    -0.07730000
opls_700-184    C    0.07058006    0.91086003    0.32217009    0.03510000
opls_700-185    C    0.07818996    0.87786003    0.36390958    -0.00240000
opls_700-186    C    0.09829997    0.86552988    0.35951993    0.02150000
opls_700-187    C    0.11069004    0.88635989    0.31395002    -0.07400000
opls_166-188    C    0.10242004    0.91829987    0.26983013    0.33040000
opls_145-189    C    0.08303006    0.93090013    0.27722020    -0.17130000
opls_700-190    C    0.13032992    0.87084993    0.29772974    -0.00430000
opls_166-191    C    0.14905993    0.88836999    0.34051980    0.08800000
opls_145-192    C    0.16817999    0.87556999    0.33061004    -0.13240000
opls_700-193    C    0.16945002    0.84404011    0.28179013    0.03510000
opls_700-194    C    0.15093992    0.82449004    0.24344982    -0.00290000
opls_700-195    C    0.13131996    0.83795007    0.25200005    0.02060000
opls_145-196    C    0.06622992    0.85681009    0.41054986    -0.13910000
opls_263-197    C    0.07348993    0.82398008    0.44920974    0.15770000
opls_145-198    C    0.09282997    0.81155007    0.44219012    -0.10510000
opls_145-199    C    0.10518004    0.83207012    0.39829999    -0.07160000
opls_145-200    C    0.11322005    0.81764993    0.21649968    -0.07160000
opls_145-201    C    0.11432992    0.78492005    0.17326987    -0.10740000
opls_263-202    C    0.13341006    0.77180000    0.16440998    0.15770000
opls_145-203    C    0.15157000    0.79135007    0.19931013    -0.12710000
opls_700-204    C    0.32741001    0.87516999    0.78621018    0.04560000
opls_700-205    C    0.34018997    0.89616999    0.74280010    -0.00160000
opls_700-206    C    0.36028997    0.88361009    0.73896967    0.02060000
opls_700-207    C    0.36741003    0.85007012    0.77803960    -0.07390000
opls_166-208    C    0.35475996    0.83041992    0.82404996    0.34690000
opls_145-209    C    0.33478002    0.84223001    0.82466008    -0.17130000
opls_700-210    C    0.38958000    0.83953997    0.78595991    -0.00430000
opls_166-211    C    0.39290004    0.80889004    0.73644009    0.08800000
opls_145-212    C    0.41303000    0.79732005    0.73838005    -0.13240000
opls_700-213    C    0.43049000    0.81670996    0.78574004    0.04500000
opls_700-214    C    0.42755995    0.84907012    0.83084971    -0.00310000
opls_700-215    C    0.40697992    0.86055989    0.83041986    0.02060000
opls_145-216    C    0.33336994    0.92949987    0.70250993    -0.13910000
opls_263-217    C    0.34617001    0.95050996    0.66223955    0.15770000
opls_145-218    C    0.36600998    0.93864011    0.66129007    -0.10510000
opls_145-219    C    0.37300999    0.90552988    0.69875020    -0.07160000
opls_145-220    C    0.40430997    0.89329987    0.87261959    -0.07160000
opls_145-221    C    0.42145997    0.91427012    0.91460016    -0.10740000
opls_263-222    C    0.44154990    0.90307012    0.91555953    0.15770000
opls_145-223    C    0.44458991    0.87081009    0.87392963    -0.12740000
opls_700-224    C    0.72621998    0.29307012    0.25657988    0.07440000
opls_145-225    C    0.70652993    0.28244011    0.20194010    -0.07370000
opls_145-226    C    0.68844000    0.29941009    0.21184986    -0.06800000
opls_700-227    C    0.68955996    0.32772988    0.27561960    0.08550000
opls_145-228    C    0.70914998    0.33836999    0.33053015    -0.07730000
opls_145-229    C    0.72734000    0.32121992    0.32138959    -0.07580000
opls_145-230    C    0.04194006    0.91461992    0.40839003    -0.07160000
opls_700-231    C    0.05016006    0.92456999    0.33248990    0.08540000
opls_145-232    C    0.03789008    0.94493997    0.25889029    -0.07360000
opls_145-233    C    0.01789006    0.95593997    0.26208019    -0.07730000
opls_700-234    C    0.00981000    0.94667995    0.33924016    0.07110000
opls_145-235    C    0.02202004    0.92572005    0.41192989    -0.07360000
opls_700-236    C    0.73290006    0.92287012    0.22284979    0.07100000
opls_145-237    C    0.72126002    0.93244011    0.28722965    -0.07580000
opls_145-238    C    0.70196000    0.91612005    0.28310017    -0.07590000
opls_700-239    C    0.69392993    0.88978008    0.21511965    0.07560000
opls_145-240    C    0.70586002    0.87980000    0.15253976    -0.07350000
opls_145-241    C    0.72505005    0.89613997    0.15604003    -0.07730000
opls_716-242    C    0.85756996    0.23255989    0.27654999    -0.14110000
opls_716-243    C    0.87803997    0.23215989    0.27439016    -0.13340000
opls_543-244    C    0.88387998    0.19678991    0.27626012    0.25380000
opls_543-245    C    0.85148995    0.19741992    0.27955961    0.25380000
opls_700-246    C    0.83153006    0.18710996    0.28519991    -0.08320000
opls_700-247    C    0.90428005    0.18580000    0.27908027    -0.05840000
opls_716-248    C    0.87686996    0.01161009    0.27559980    -0.13410000
opls_716-249    C    0.85635995    0.01190013    0.27654999    -0.13470000
opls_543-250    C    0.85063996    0.04712988    0.27959990    0.25380000
opls_543-251    C    0.88308995    0.04672988    0.27789961    0.25380000
opls_700-252    C    0.83069999    0.05806003    0.28415004    -0.05830000
opls_700-253    C    0.90357995    0.05707012    0.28036981    -0.06500000
opls_716-254    C    0.93119998    0.13821009    0.28187002    -0.13680000
opls_716-255    C    0.93102994    0.10347012    0.28293969    -0.13800000
opls_543-256    C    0.90984002    0.09261992    0.28241016    0.22460000
opls_543-257    C    0.91009000    0.14995989    0.28117011    0.22470000
opls_716-258    C    0.80430006    0.10566003    0.28650994    -0.11980000
opls_716-259    C    0.80448005    0.14038991    0.28624977    -0.13660000
opls_543-260    C    0.82564004    0.15132988    0.28583972    0.22260000
opls_543-261    C    0.82527998    0.09395989    0.28614019    0.22040000
opls_142-262    C    0.74514001    0.27433997    0.24463967    0.01940000
opls_145-263    C    0.78134991    0.25764993    0.30235976    0.23660000
opls_145-264    C    0.79341003    0.24112988    0.38369022    -0.12830000
opls_145-265    C    0.81039003    0.21972988    0.37890961    -0.07360000
opls_700-266    C    0.81571998    0.21464993    0.29264018    0.08440000
opls_145-267    C    0.80444001    0.23310013    0.21219982    -0.07580000
opls_145-268    C    0.78760000    0.25503001    0.21764004    -0.12860000
opls_700-269    C    0.81427996    0.03069004    0.28546997    0.08460000
opls_700-270    C    0.91994994    0.02972988    0.28100963    0.08530000
opls_700-271    C    0.92104004    0.21244993    0.28034011    0.08740000
opls_145-272    C    0.80408001    0.01284993    0.20228016    -0.07730000
opls_145-273    C    0.78713000    0.99026003    0.20072975    -0.11000000
opls_145-274    C    0.77989990    0.98518991    0.28273961    0.22460000
opls_145-275    C    0.79030993    0.00269987    0.36601002    -0.12860000
opls_145-276    C    0.80742997    0.02483001    0.36774001    -0.07350000
opls_145-277    C    0.93410996    0.02076999    0.36636988    -0.07140000
opls_145-278    C    0.95225995    0.00181992    0.36684992    -0.12860000
opls_145-279    C    0.95680002    0.99178008    0.28133979    0.23550000
opls_145-280    C    0.94244002    0.00015007    0.19610962    -0.12830000
opls_145-281    C    0.92409991    0.01867012    0.19580986    -0.07360000
opls_145-282    C    0.93697997    0.21706003    0.36311988    -0.07360000
opls_145-283    C    0.95566994    0.23375007    0.36001977    -0.12830000
opls_145-284    C    0.95865996    0.24703001    0.27471961    0.22900000
opls_145-285    C    0.94216993    0.24441009    0.19262986    -0.11000000
opls_145-286    C    0.92356003    0.22710996    0.19541961    -0.07730000
opls_142-287    C    0.98385000    0.28012988    0.20998979    0.01640000
opls_142-288    C    0.98910002    0.95930013    0.34700989    0.01640000
opls_142-289    C    0.75278995    0.94086003    0.22054008    0.01950000
opls_145-290    C    0.03120000    0.32635989    0.16318973    -0.06840000
opls_700-291    C    0.04761999    0.30503001    0.21417017    0.07670000
opls_145-292    C    0.04301999    0.27560000    0.26429022    -0.07350000
opls_145-293    C    0.02233006    0.26747995    0.26355001    -0.07730000
opls_700-294    C    0.00586006    0.28886003    0.21319030    0.07110000
opls_145-295    C    0.01051002    0.31821992    0.16267010    -0.07730000
opls_700-296    C    0.42941994    0.41086003    0.67782991    0.03510000
opls_700-297    C    0.42181000    0.37786003    0.63608971    -0.00240000
opls_700-298    C    0.40170003    0.36552988    0.64048007    0.02150000
opls_700-299    C    0.38930996    0.38635989    0.68604998    -0.07390000
opls_166-300    C    0.39757996    0.41830013    0.73016987    0.33040000
opls_145-301    C    0.41696994    0.43090013    0.72277980    -0.17130000
opls_700-302    C    0.36966989    0.37084993    0.70226955    -0.00430000
opls_166-303    C    0.35094007    0.38836999    0.65948020    0.08800000
opls_145-304    C    0.33182001    0.37556999    0.66938996    -0.13240000
opls_700-305    C    0.33054998    0.34404011    0.71820987    0.03510000
opls_700-306    C    0.34905993    0.32449004    0.75655018    -0.00290000
opls_700-307    C    0.36868004    0.33795007    0.74799995    0.02060000
opls_145-308    C    0.43376993    0.35681009    0.58945014    -0.13910000
opls_263-309    C    0.42651003    0.32398008    0.55078956    0.15770000
opls_145-310    C    0.40717003    0.31155007    0.55780988    -0.10510000
opls_145-311    C    0.39481996    0.33207012    0.60170001    -0.07160000
opls_145-312    C    0.38677992    0.31764993    0.78349962    -0.07160000
opls_145-313    C    0.38566993    0.28492005    0.82673013    -0.10740000
opls_263-314    C    0.36658994    0.27180000    0.83559002    0.15770000
opls_145-315    C    0.34843000    0.29135007    0.80068987    -0.12710000
opls_700-316    C    0.17258999    0.37516999    0.21378982    0.04560000
opls_700-317    C    0.15981003    0.39616999    0.25719990    -0.00160000
opls_700-318    C    0.13970999    0.38361009    0.26102962    0.02060000
opls_700-319    C    0.13258993    0.35007012    0.22195970    -0.07390000
opls_166-320    C    0.14524004    0.33041992    0.17595004    0.34690000
opls_145-321    C    0.16521998    0.34223001    0.17533992    -0.17130000
opls_700-322    C    0.11042000    0.33953997    0.21404009    -0.00430000
opls_166-323    C    0.10709996    0.30889004    0.26355991    0.08800000
opls_145-324    C    0.08697000    0.29732005    0.26161995    -0.13240000
opls_700-325    C    0.06951000    0.31670996    0.21425996    0.04500000
opls_700-326    C    0.07244005    0.34907012    0.16915029    -0.00310000
opls_700-327    C    0.09302008    0.36055989    0.16958014    0.02060000
opls_145-328    C    0.16663006    0.42949987    0.29749007    -0.13910000
opls_263-329    C    0.15382995    0.45050996    0.33775975    0.15770000
opls_145-330    C    0.13399002    0.43864011    0.33870993    -0.10510000
opls_145-331    C    0.12699001    0.40552988    0.30124980    -0.07160000
opls_145-332    C    0.09568999    0.39330013    0.12737970    -0.07160000
opls_145-333    C    0.07854003    0.41427012    0.08539984    -0.10740000
opls_263-334    C    0.05845006    0.40307012    0.08443976    0.15770000
opls_145-335    C    0.05541005    0.37081009    0.12606966    -0.12740000
opls_700-336    C    0.22621998    0.79307012    0.25657988    0.07440000
opls_145-337    C    0.20652993    0.78244011    0.20194010    -0.07370000
opls_145-338    C    0.18844000    0.79941009    0.21184986    -0.06800000
opls_700-339    C    0.18955996    0.82772988    0.27561960    0.08550000
opls_145-340    C    0.20914998    0.83836999    0.33053015    -0.07730000
opls_145-341    C    0.22734000    0.82121992    0.32138959    -0.07580000
opls_145-342    C    0.54194006    0.41461992    0.40839003    -0.07160000
opls_700-343    C    0.55016006    0.42456999    0.33248990    0.08540000
opls_145-344    C    0.53789008    0.44493997    0.25889029    -0.07360000
opls_145-345    C    0.51789006    0.45593997    0.26208019    -0.07730000
opls_700-346    C    0.50981000    0.44667995    0.33924016    0.07110000
opls_145-347    C    0.52202004    0.42572005    0.41192989    -0.07360000
opls_700-348    C    0.23290006    0.42287012    0.22284979    0.07100000
opls_145-349    C    0.22126002    0.43244011    0.28722965    -0.07580000
opls_145-350    C    0.20196000    0.41612005    0.28310017    -0.07590000
opls_700-351    C    0.19392993    0.38978008    0.21511965    0.07560000
opls_145-352    C    0.20586002    0.37980000    0.15253976    -0.07350000
opls_145-353    C    0.22505005    0.39613997    0.15604003    -0.07730000
opls_716-354    C    0.35756996    0.73255989    0.27654999    -0.14110000
opls_716-355    C    0.37803997    0.73215989    0.27439016    -0.13340000
opls_543-356    C    0.38387998    0.69678991    0.27626012    0.25380000
opls_543-357    C    0.35148995    0.69741992    0.27955961    0.25380000
opls_700-358    C    0.33153006    0.68710996    0.28519991    -0.08320000
opls_700-359    C    0.40428005    0.68580000    0.27908027    -0.05840000
opls_716-360    C    0.37686996    0.51161009    0.27559980    -0.13410000
opls_716-361    C    0.35635995    0.51190013    0.27654999    -0.13470000
opls_543-362    C    0.35063996    0.54712988    0.27959990    0.25380000
opls_543-363    C    0.38308995    0.54672988    0.27789961    0.25380000
opls_700-364    C    0.33069999    0.55806003    0.28415004    -0.05830000
opls_700-365    C    0.40357995    0.55707012    0.28036981    -0.06500000
opls_716-366    C    0.43119998    0.63821009    0.28187002    -0.13680000
opls_716-367    C    0.43102994    0.60347012    0.28293969    -0.13800000
opls_543-368    C    0.40984002    0.59261992    0.28241016    0.22460000
opls_543-369    C    0.41009000    0.64995989    0.28117011    0.22470000
opls_716-370    C    0.30430006    0.60566003    0.28650994    -0.11980000
opls_716-371    C    0.30448005    0.64038991    0.28624977    -0.13660000
opls_543-372    C    0.32564004    0.65132988    0.28583972    0.22260000
opls_543-373    C    0.32527998    0.59395989    0.28614019    0.22040000
opls_142-374    C    0.24514001    0.77433997    0.24463967    0.01940000
opls_145-375    C    0.28134991    0.75764993    0.30235976    0.23660000
opls_145-376    C    0.29341003    0.74112988    0.38369022    -0.12830000
opls_145-377    C    0.31039003    0.71972988    0.37890961    -0.07360000
opls_700-378    C    0.31571998    0.71464993    0.29264018    0.08440000
opls_145-379    C    0.30444001    0.73309987    0.21219982    -0.07580000
opls_145-380    C    0.28760000    0.75503001    0.21764004    -0.12860000
opls_700-381    C    0.31427996    0.53069004    0.28546997    0.08460000
opls_700-382    C    0.41994994    0.52972988    0.28100963    0.08530000
opls_700-383    C    0.42104004    0.71244993    0.28034011    0.08740000
opls_145-384    C    0.30408001    0.51284993    0.20228016    -0.07730000
opls_145-385    C    0.28713000    0.49026003    0.20072975    -0.11000000
opls_145-386    C    0.27989990    0.48518991    0.28273961    0.22460000
opls_145-387    C    0.29030993    0.50270013    0.36601002    -0.12860000
opls_145-388    C    0.30742997    0.52483001    0.36774001    -0.07350000
opls_145-389    C    0.43410996    0.52076999    0.36636988    -0.07140000
opls_145-390    C    0.45225995    0.50181992    0.36684992    -0.12860000
opls_145-391    C    0.45680002    0.49178008    0.28133979    0.23550000
opls_145-392    C    0.44244002    0.50015007    0.19610962    -0.12830000
opls_145-393    C    0.42409991    0.51867012    0.19580986    -0.07360000
opls_145-394    C    0.43697997    0.71706003    0.36311988    -0.07360000
opls_145-395    C    0.45566994    0.73375007    0.36001977    -0.12830000
opls_145-396    C    0.45865996    0.74703001    0.27471961    0.22890000
opls_145-397    C    0.44216993    0.74441009    0.19262986    -0.11000000
opls_145-398    C    0.42356003    0.72710996    0.19541961    -0.07730000
opls_142-399    C    0.48385000    0.78012988    0.20998979    0.01640000
opls_142-400    C    0.48910002    0.45930013    0.34700989    0.01640000
opls_142-401    C    0.25278995    0.44086003    0.22054008    0.01950000
opls_145-402    C    0.53120000    0.82635989    0.16318973    -0.06840000
opls_700-403    C    0.54761999    0.80503001    0.21417017    0.07670000
opls_145-404    C    0.54301999    0.77560000    0.26429022    -0.07350000
opls_145-405    C    0.52233006    0.76747995    0.26355001    -0.07730000
opls_700-406    C    0.50586006    0.78886003    0.21319030    0.07110000
opls_145-407    C    0.51051002    0.81821992    0.16267010    -0.07730000
opls_700-408    C    0.92941994    0.91086003    0.67782991    0.03510000
opls_700-409    C    0.92181000    0.87786003    0.63608971    -0.00240000
opls_700-410    C    0.90170003    0.86552988    0.64048007    0.02150000
opls_700-411    C    0.88930996    0.88635989    0.68604998    -0.07400000
opls_166-412    C    0.89757996    0.91829987    0.73016987    0.33040000
opls_145-413    C    0.91696994    0.93090013    0.72277980    -0.17140000
opls_700-414    C    0.86966989    0.87084993    0.70226955    -0.00430000
opls_166-415    C    0.85094007    0.88836999    0.65948020    0.08800000
opls_145-416    C    0.83182001    0.87556999    0.66938996    -0.13240000
opls_700-417    C    0.83054998    0.84404011    0.71820987    0.03510000
opls_700-418    C    0.84905993    0.82449004    0.75655018    -0.00290000
opls_700-419    C    0.86868004    0.83795007    0.74799995    0.02060000
opls_145-420    C    0.93376993    0.85681009    0.58945014    -0.13910000
opls_263-421    C    0.92651003    0.82398008    0.55078956    0.15770000
opls_145-422    C    0.90717003    0.81155007    0.55780988    -0.10510000
opls_145-423    C    0.89481996    0.83207012    0.60170001    -0.07160000
opls_145-424    C    0.88677992    0.81764993    0.78349962    -0.07160000
opls_145-425    C    0.88566993    0.78492005    0.82673013    -0.10740000
opls_263-426    C    0.86658994    0.77180000    0.83559002    0.15770000
opls_145-427    C    0.84843000    0.79135007    0.80068987    -0.12710000
opls_700-428    C    0.67258999    0.87516999    0.21378982    0.04560000
opls_700-429    C    0.65981003    0.89616999    0.25719990    -0.00160000
opls_700-430    C    0.63970999    0.88361009    0.26102962    0.02060000
opls_700-431    C    0.63258993    0.85007012    0.22195970    -0.07390000
opls_166-432    C    0.64524004    0.83041992    0.17595004    0.34690000
opls_145-433    C    0.66521998    0.84223001    0.17533992    -0.17130000
opls_700-434    C    0.61042000    0.83953997    0.21404009    -0.00430000
opls_166-435    C    0.60709996    0.80889004    0.26355991    0.08800000
opls_145-436    C    0.58697000    0.79732005    0.26161995    -0.13240000
opls_700-437    C    0.56951000    0.81670996    0.21425996    0.04500000
opls_700-438    C    0.57244005    0.84907012    0.16915029    -0.00310000
opls_700-439    C    0.59302008    0.86055989    0.16958014    0.02060000
opls_145-440    C    0.66663006    0.92949987    0.29749007    -0.13910000
opls_263-441    C    0.65382995    0.95050996    0.33775975    0.15770000
opls_145-442    C    0.63399002    0.93864011    0.33870993    -0.10510000
opls_145-443    C    0.62699001    0.90552988    0.30124980    -0.07160000
opls_145-444    C    0.59568999    0.89329987    0.12737970    -0.07160000
opls_145-445    C    0.57854003    0.91427012    0.08539984    -0.10740000
opls_263-446    C    0.55845006    0.90307012    0.08443976    0.15770000
opls_145-447    C    0.55541005    0.87081009    0.12606966    -0.12740000
opls_542-448    N    0.13241003    0.17512005    0.72102012    -0.30460000
opls_542-449    N    0.13299991    0.06889004    0.72027001    -0.30430000
opls_542-450    N    0.10240993    0.12153997    0.71832016    -0.30560000
opls_542-451    N    0.16206998    0.12247012    0.71461981    -0.30510000
opls_750-452    N    0.23711990    0.27664993    0.69202963    -0.25580000
opls_750-453    N    0.02084003    0.25921009    0.72740982    -0.25720000
opls_750-454    N    0.02347997    0.97633997    0.72167973    -0.25700000
opls_750-455    N    0.23854991    0.96472005    0.71722999    -0.25630000
opls_542-456    N    0.63241003    0.67512005    0.72102012    -0.30460000
opls_542-457    N    0.63299991    0.56889004    0.72027001    -0.30430000
opls_542-458    N    0.60240993    0.62153997    0.71832016    -0.30560000
opls_542-459    N    0.66206998    0.62247012    0.71461981    -0.30510000
opls_750-460    N    0.73711990    0.77664993    0.69202963    -0.25580000
opls_750-461    N    0.52084003    0.75921009    0.72740982    -0.25720000
opls_750-462    N    0.52347997    0.47633997    0.72167973    -0.25700000
opls_750-463    N    0.73854991    0.46472005    0.71722999    -0.25630000
opls_542-464    N    0.86758997    0.17512005    0.27897988    -0.30460000
opls_542-465    N    0.86699994    0.06889004    0.27972999    -0.30430000
opls_542-466    N    0.89758992    0.12153997    0.28167984    -0.30560000
opls_542-467    N    0.83793002    0.12247012    0.28538019    -0.30510000
opls_750-468    N    0.76287991    0.27664993    0.30796966    -0.25580000
opls_750-469    N    0.97915997    0.25921009    0.27259018    -0.25720000
opls_750-470    N    0.97652003    0.97633997    0.27832027    -0.25700000
opls_750-471    N    0.76144994    0.96472005    0.28277001    -0.25630000
opls_542-472    N    0.36758997    0.67512005    0.27897988    -0.30460000
opls_542-473    N    0.36699994    0.56889004    0.27972999    -0.30430000
opls_542-474    N    0.39758992    0.62153997    0.28167984    -0.30570000
opls_542-475    N    0.33793002    0.62247012    0.28538019    -0.30520000
opls_750-476    N    0.26287991    0.77664993    0.30796966    -0.25580000
opls_750-477    N    0.47915997    0.75921009    0.27259018    -0.25720000
opls_750-478    N    0.47652003    0.47633997    0.27832027    -0.25700000
opls_750-479    N    0.26144994    0.46472005    0.28277001    -0.25630000
Cu2+-480    Cu    0.13206992    0.12198008    0.71655977    0.81570000
Cu2+-481    Cu    0.63206992    0.62198008    0.71655977    0.81570000
Cu2+-482    Cu    0.86793008    0.12198008    0.28344023    0.81570000
Cu2+-483    Cu    0.36793008    0.62198008    0.28344023    0.81570000
opls_146-484    H    0.29477994    0.25978008    0.85098949    0.05130000
opls_144-485    H    0.32741997    0.29030996    0.83206006    -0.09060000
opls_146-486    H    0.28959996    0.36112988    0.61689021    0.05130000
opls_146-487    H    0.25690992    0.33018008    0.63322007    0.05130000
opls_146-488    H    0.94850997    0.89738991    0.53231966    0.05130000
opls_146-489    H    0.95585001    0.95267995    0.80420004    0.05130000
opls_146-490    H    0.99193005    0.97249004    0.79805000    0.05130000
opls_146-491    H    0.98446993    0.91778991    0.52577019    0.05130000
opls_146-492    H    0.27257995    0.95352988    0.65680003    0.05130000
opls_146-493    H    0.30744997    0.92412988    0.66475004    0.05130000
opls_146-494    H    0.29999995    0.85813997    0.90216011    0.05130000
opls_146-495    H    0.26569003    0.88749987    0.89616986    0.05070000
opls_547-496    H    0.15089999    0.25892988    0.72430970    0.05130000
opls_547-497    H    0.11337004    0.25820000    0.72836990    0.05130000
opls_547-498    H    0.11479996    0.98527995    0.72670991    0.05130000
opls_547-499    H    0.15243996    0.98581009    0.72511990    0.05130000
opls_547-500    H    0.05383991    0.15304011    0.71833995    0.05130000
opls_547-501    H    0.05413996    0.08803001    0.71598005    0.05130000
opls_547-502    H    0.21062997    0.09078008    0.71305951    0.05120000
opls_547-503    H    0.21030001    0.15578991    0.71363004    0.05130000
opls_144-504    H    0.25609999    0.25767995    0.82168016    0.03030000
opls_146-505    H    0.21054990    0.24506003    0.54544973    0.05130000
opls_146-506    H    0.17997999    0.20624993    0.55461009    0.05130000
opls_146-507    H    0.19107001    0.23030996    0.85781964    0.05130000
opls_146-508    H    0.22098001    0.27070996    0.84715977    0.05130000
opls_146-509    H    0.19047997    0.01660000    0.86514963    0.05130000
opls_146-510    H    0.22089992    0.97584993    0.86720977    0.05130000
opls_146-511    H    0.21510995    0.99904993    0.56645980    0.05130000
opls_146-512    H    0.18419997    0.03810013    0.56307972    0.05130000
opls_146-513    H    0.06909997    0.02893997    0.56350957    0.05130000
opls_146-514    H    0.03649996    0.99438991    0.56319001    0.05130000
opls_146-515    H    0.05438996    0.99189004    0.87403002    0.05130000
opls_146-516    H    0.08748990    0.02472005    0.87430999    0.05130000
opls_146-517    H    0.06522004    0.20720000    0.56625973    0.05130000
opls_146-518    H    0.03134005    0.23666003    0.57265013    0.05130000
opls_146-519    H    0.05613002    0.25638008    0.87669958    0.05130000
opls_146-520    H    0.08954003    0.22501992    0.87176980    0.05130000
opls_144-521    H    0.02902990    0.29209987    0.84852990    0.03030000
opls_144-522    H    0.01569993    0.95372988    0.58469993    0.03030000
opls_144-523    H    0.23955000    0.93309987    0.83824968    0.03030000
opls_144-524    H    0.96534991    0.35036999    0.87793963    -0.09210000
opls_146-525    H    0.94386992    0.25807012    0.69396959    0.05130000
opls_146-526    H    0.98126995    0.24338008    0.69600994    0.05070000
opls_146-527    H    0.00271996    0.33549987    0.87903969    0.05130000
opls_146-528    H    0.57744999    0.45795989    0.24587971    0.05130000
opls_146-529    H    0.68308991    0.39090013    0.36262994    0.05130000
opls_146-530    H    0.55039004    0.36658991    0.41702016    0.05130000
opls_146-531    H    0.59862992    0.28446003    0.47244963    0.05130000
opls_146-532    H    0.62100996    0.32150996    0.39396973    0.05130000
opls_146-533    H    0.59748004    0.32792988    0.22296997    0.05130000
opls_146-534    H    0.59958006    0.26870996    0.14491991    0.05130000
opls_144-535    H    0.66704005    0.28021009    0.19176027    -0.09060000
opls_146-536    H    0.82447991    0.32452988    0.85717982    0.05130000
opls_146-537    H    0.91540995    0.27167995    0.70093972    0.05130000
opls_146-538    H    0.81718000    0.43958991    0.70258981    0.05130000
opls_146-539    H    0.87660996    0.45604993    0.62973960    0.05130000
opls_146-540    H    0.88922998    0.39624011    0.69659956    0.05130000
opls_146-541    H    0.88801994    0.40289004    0.87265989    0.05130000
opls_146-542    H    0.91910000    0.44072988    0.94842004    0.05130000
opls_144-543    H    0.96109993    0.36210013    0.87506009    -0.09210000
opls_796-544    H    0.36042992    0.45310996    0.84137949    0.26040000
opls_796-545    H    0.33360992    0.79623001    0.76473986    0.26030000
opls_146-546    H    0.79477994    0.75978008    0.85098949    0.05130000
opls_144-547    H    0.82741997    0.79030996    0.83206006    -0.09060000
opls_146-548    H    0.78959996    0.86112988    0.61689021    0.05130000
opls_146-549    H    0.75690992    0.83018008    0.63322007    0.05130000
opls_146-550    H    0.44850997    0.39738991    0.53231966    0.05130000
opls_146-551    H    0.45585001    0.45267995    0.80420004    0.05130000
opls_146-552    H    0.49193005    0.47249004    0.79805000    0.05130000
opls_146-553    H    0.48446993    0.41778991    0.52577019    0.05130000
opls_146-554    H    0.77257995    0.45352988    0.65680003    0.05130000
opls_146-555    H    0.80744997    0.42412988    0.66475004    0.05130000
opls_146-556    H    0.79999995    0.35813997    0.90216011    0.05130000
opls_146-557    H    0.76569003    0.38750013    0.89616986    0.05070000
opls_547-558    H    0.65089999    0.75892988    0.72430970    0.05130000
opls_547-559    H    0.61337004    0.75820000    0.72836990    0.05130000
opls_547-560    H    0.61479996    0.48527995    0.72670991    0.05130000
opls_547-561    H    0.65243996    0.48581009    0.72511990    0.05130000
opls_547-562    H    0.55383991    0.65304011    0.71833995    0.05130000
opls_547-563    H    0.55413996    0.58803001    0.71598005    0.05130000
opls_547-564    H    0.71062997    0.59078008    0.71305951    0.05130000
opls_547-565    H    0.71030001    0.65578991    0.71363004    0.05130000
opls_144-566    H    0.75609999    0.75767995    0.82168016    0.03030000
opls_146-567    H    0.71054990    0.74506003    0.54544973    0.05130000
opls_146-568    H    0.67997999    0.70624993    0.55461009    0.05130000
opls_146-569    H    0.69107001    0.73030996    0.85781964    0.05130000
opls_146-570    H    0.72098001    0.77070996    0.84715977    0.05130000
opls_146-571    H    0.69047997    0.51660000    0.86514963    0.05130000
opls_146-572    H    0.72089992    0.47584993    0.86720977    0.05130000
opls_146-573    H    0.71510995    0.49904993    0.56645980    0.05130000
opls_146-574    H    0.68419997    0.53809987    0.56307972    0.05130000
opls_146-575    H    0.56909997    0.52893997    0.56350957    0.05130000
opls_146-576    H    0.53649996    0.49438991    0.56319001    0.05120000
opls_146-577    H    0.55438996    0.49189004    0.87403002    0.05130000
opls_146-578    H    0.58748990    0.52472005    0.87430999    0.05130000
opls_146-579    H    0.56522004    0.70720000    0.56625973    0.05130000
opls_146-580    H    0.53134005    0.73666003    0.57265013    0.05130000
opls_146-581    H    0.55613002    0.75638008    0.87669958    0.05130000
opls_146-582    H    0.58954003    0.72501992    0.87176980    0.05130000
opls_144-583    H    0.52902990    0.79210013    0.84852990    0.03030000
opls_144-584    H    0.51569993    0.45372988    0.58469993    0.03030000
opls_144-585    H    0.73955000    0.43310013    0.83824968    0.03030000
opls_144-586    H    0.46534991    0.85036999    0.87793963    -0.09210000
opls_146-587    H    0.44386992    0.75807012    0.69396959    0.05130000
opls_146-588    H    0.48126995    0.74338008    0.69600994    0.05070000
opls_146-589    H    0.50271996    0.83550013    0.87903969    0.05130000
opls_146-590    H    0.07744999    0.95795989    0.24587971    0.05130000
opls_146-591    H    0.18308991    0.89090013    0.36262994    0.05130000
opls_146-592    H    0.05039004    0.86658991    0.41702016    0.05130000
opls_146-593    H    0.09862992    0.78446003    0.47244963    0.05130000
opls_146-594    H    0.12100996    0.82150996    0.39396973    0.05130000
opls_146-595    H    0.09748004    0.82792988    0.22296997    0.05130000
opls_146-596    H    0.09958006    0.76870996    0.14491991    0.05130000
opls_144-597    H    0.16704005    0.78021009    0.19176027    -0.09060000
opls_146-598    H    0.32447991    0.82452988    0.85717982    0.05130000
opls_146-599    H    0.41540995    0.77167995    0.70093972    0.05130000
opls_146-600    H    0.31718000    0.93958991    0.70258981    0.05130000
opls_146-601    H    0.37660996    0.95604993    0.62973960    0.05130000
opls_146-602    H    0.38922998    0.89624011    0.69659956    0.05130000
opls_146-603    H    0.38801994    0.90289004    0.87265989    0.05130000
opls_146-604    H    0.41910000    0.94072988    0.94842004    0.05130000
opls_144-605    H    0.46109993    0.86209987    0.87506009    -0.09210000
opls_796-606    H    0.86042992    0.95310996    0.84137949    0.26040000
opls_796-607    H    0.83360992    0.29623001    0.76473986    0.26030000
opls_146-608    H    0.70522003    0.25978008    0.14900980    0.05130000
opls_144-609    H    0.67258003    0.29030996    0.16793994    -0.09060000
opls_146-610    H    0.71040004    0.36112988    0.38310979    0.05130000
opls_146-611    H    0.74308993    0.33018008    0.36677993    0.05130000
opls_146-612    H    0.05148999    0.89738991    0.46767963    0.05130000
opls_146-613    H    0.04414999    0.95267995    0.19579996    0.05130000
opls_146-614    H    0.00806995    0.97249004    0.20195000    0.05130000
opls_146-615    H    0.01552992    0.91778991    0.47422981    0.05130000
opls_146-616    H    0.72742005    0.95352988    0.34319997    0.05130000
opls_146-617    H    0.69255003    0.92412988    0.33524996    0.05130000
opls_146-618    H    0.70000005    0.85813997    0.09783989    0.05130000
opls_146-619    H    0.73430997    0.88749987    0.10383014    0.05070000
opls_547-620    H    0.84909997    0.25892988    0.27568959    0.05130000
opls_547-621    H    0.88662996    0.25820000    0.27163010    0.05130000
opls_547-622    H    0.88520004    0.98527995    0.27329009    0.05130000
opls_547-623    H    0.84756004    0.98581009    0.27488010    0.05130000
opls_547-624    H    0.94615994    0.15304011    0.28166005    0.05130000
opls_547-625    H    0.94586004    0.08803001    0.28401995    0.05130000
opls_547-626    H    0.78936999    0.09078008    0.28693979    0.05130000
opls_547-627    H    0.78969999    0.15578991    0.28636996    0.05130000
opls_144-628    H    0.74390001    0.25767995    0.17831984    0.03030000
opls_146-629    H    0.78944991    0.24506003    0.45454957    0.05130000
opls_146-630    H    0.82002001    0.20624993    0.44538991    0.05130000
opls_146-631    H    0.80892995    0.23030996    0.14217965    0.05130000
opls_146-632    H    0.77901999    0.27070996    0.15284023    0.05130000
opls_146-633    H    0.80951999    0.01660000    0.13484967    0.05130000
opls_146-634    H    0.77910008    0.97584993    0.13279023    0.05130000
opls_146-635    H    0.78489005    0.99904993    0.43354020    0.05130000
opls_146-636    H    0.81579999    0.03810013    0.43691957    0.05130000
opls_146-637    H    0.93089999    0.02893997    0.43648972    0.05130000
opls_146-638    H    0.96350004    0.99438991    0.43680999    0.05130000
opls_146-639    H    0.94561004    0.99189004    0.12596998    0.05130000
opls_146-640    H    0.91250995    0.02472005    0.12569001    0.05130000
opls_146-641    H    0.93477992    0.20720000    0.43373956    0.05130000
opls_146-642    H    0.96865995    0.23666003    0.42734987    0.05130000
opls_146-643    H    0.94386994    0.25638008    0.12329971    0.05130000
opls_146-644    H    0.91045997    0.22501992    0.12823020    0.05130000
opls_144-645    H    0.97096995    0.29209987    0.15147010    0.03030000
opls_144-646    H    0.98430007    0.95372988    0.41530007    0.03030000
opls_144-647    H    0.76045000    0.93309987    0.16175032    0.03030000
opls_144-648    H    0.03465005    0.35036999    0.12205966    -0.09210000
opls_146-649    H    0.05613004    0.25807012    0.30602970    0.05130000
opls_146-650    H    0.01873005    0.24338008    0.30399006    0.05070000
opls_146-651    H    0.99728004    0.33549987    0.12096031    0.05130000
opls_146-652    H    0.42254997    0.45795989    0.75411958    0.05130000
opls_146-653    H    0.31690994    0.39090013    0.63737006    0.05130000
opls_146-654    H    0.44960996    0.36658991    0.58297984    0.05130000
opls_146-655    H    0.40137004    0.28446003    0.52754966    0.05130000
opls_146-656    H    0.37899000    0.32150996    0.60602956    0.05130000
opls_146-657    H    0.40251996    0.32792988    0.77703003    0.05130000
opls_146-658    H    0.40041994    0.26870996    0.85508009    0.05130000
opls_144-659    H    0.33295995    0.28021009    0.80823973    -0.09060000
opls_146-660    H    0.17551994    0.32452988    0.14282018    0.05130000
opls_146-661    H    0.08459005    0.27167995    0.29906028    0.05130000
opls_146-662    H    0.18282000    0.43958991    0.29741019    0.05130000
opls_146-663    H    0.12339000    0.45604993    0.37025969    0.05130000
opls_146-664    H    0.11076998    0.39624011    0.30339973    0.05130000
opls_146-665    H    0.11198006    0.40289004    0.12734011    0.05130000
opls_146-666    H    0.08090000    0.44072988    0.05157996    0.05130000
opls_144-667    H    0.03889992    0.36210013    0.12493991    -0.09210000
opls_796-668    H    0.63957004    0.45310996    0.15861980    0.26040000
opls_796-669    H    0.66638993    0.79623001    0.23526014    0.26030000
opls_146-670    H    0.20522003    0.75978008    0.14900980    0.05130000
opls_144-671    H    0.17258003    0.79030996    0.16793994    -0.09060000
opls_146-672    H    0.21040004    0.86112988    0.38310979    0.05130000
opls_146-673    H    0.24308993    0.83018008    0.36677993    0.05130000
opls_146-674    H    0.55148999    0.39738991    0.46767963    0.05130000
opls_146-675    H    0.54414999    0.45267995    0.19579996    0.05130000
opls_146-676    H    0.50806995    0.47249004    0.20195000    0.05130000
opls_146-677    H    0.51552992    0.41778991    0.47422981    0.05130000
opls_146-678    H    0.22742005    0.45352988    0.34319997    0.05130000
opls_146-679    H    0.19255003    0.42412988    0.33524996    0.05130000
opls_146-680    H    0.20000005    0.35813997    0.09783989    0.05130000
opls_146-681    H    0.23430997    0.38750013    0.10383014    0.05070000
opls_547-682    H    0.34909997    0.75892988    0.27568959    0.05130000
opls_547-683    H    0.38662996    0.75820000    0.27163010    0.05130000
opls_547-684    H    0.38520004    0.48527995    0.27329009    0.05130000
opls_547-685    H    0.34756004    0.48581009    0.27488010    0.05130000
opls_547-686    H    0.44615994    0.65304011    0.28166005    0.05130000
opls_547-687    H    0.44586004    0.58803001    0.28401995    0.05130000
opls_547-688    H    0.28936999    0.59078008    0.28693979    0.05130000
opls_547-689    H    0.28969999    0.65578991    0.28636996    0.05130000
opls_144-690    H    0.24390001    0.75767995    0.17831984    0.03030000
opls_146-691    H    0.28944991    0.74506003    0.45454957    0.05130000
opls_146-692    H    0.32002001    0.70624993    0.44538991    0.05120000
opls_146-693    H    0.30892995    0.73030996    0.14217965    0.05130000
opls_146-694    H    0.27901999    0.77070996    0.15284023    0.05130000
opls_146-695    H    0.30951999    0.51660000    0.13484967    0.05130000
opls_146-696    H    0.27910008    0.47584993    0.13279023    0.05130000
opls_146-697    H    0.28489005    0.49904993    0.43354020    0.05130000
opls_146-698    H    0.31579999    0.53809987    0.43691957    0.05130000
opls_146-699    H    0.43089999    0.52893997    0.43648972    0.05130000
opls_146-700    H    0.46350004    0.49438991    0.43680999    0.05130000
opls_146-701    H    0.44561004    0.49189004    0.12596998    0.05130000
opls_146-702    H    0.41250995    0.52472005    0.12569001    0.05130000
opls_146-703    H    0.43477992    0.70720000    0.43373956    0.05130000
opls_146-704    H    0.46865995    0.73666003    0.42734987    0.05130000
opls_146-705    H    0.44386994    0.75638008    0.12329971    0.05130000
opls_146-706    H    0.41045997    0.72501992    0.12823020    0.05130000
opls_144-707    H    0.47096995    0.79210013    0.15147010    0.03030000
opls_144-708    H    0.48430007    0.45372988    0.41530007    0.03030000
opls_144-709    H    0.26045000    0.43310013    0.16175032    0.03030000
opls_144-710    H    0.53465005    0.85036999    0.12205966    -0.09210000
opls_146-711    H    0.55613004    0.75807012    0.30602970    0.05130000
opls_146-712    H    0.51873005    0.74338008    0.30399006    0.05070000
opls_146-713    H    0.49728004    0.83550013    0.12096031    0.05130000
opls_146-714    H    0.92254997    0.95795989    0.75411958    0.05130000
opls_146-715    H    0.81690994    0.89090013    0.63737006    0.05130000
opls_146-716    H    0.94960996    0.86658991    0.58297984    0.05130000
opls_146-717    H    0.90137004    0.78446003    0.52754966    0.05130000
opls_146-718    H    0.87899000    0.82150996    0.60602956    0.05130000
opls_146-719    H    0.90251996    0.82792988    0.77703003    0.05130000
opls_146-720    H    0.90041994    0.76870996    0.85508009    0.05130000
opls_144-721    H    0.83295995    0.78021009    0.80823973    -0.09060000
opls_146-722    H    0.67551994    0.82452988    0.14282018    0.05130000
opls_146-723    H    0.58459005    0.77167995    0.29906028    0.05130000
opls_146-724    H    0.68282000    0.93958991    0.29741019    0.05130000
opls_146-725    H    0.62339000    0.95604993    0.37025969    0.05130000
opls_146-726    H    0.61076998    0.89624011    0.30339973    0.05130000
opls_146-727    H    0.61198006    0.90289004    0.12734011    0.05130000
opls_146-728    H    0.58090000    0.94072988    0.05157996    0.05130000
opls_144-729    H    0.53890007    0.86209987    0.12493991    -0.09210000
opls_796-730    H    0.13957004    0.95310996    0.15861980    0.26040000
opls_796-731    H    0.16638993    0.29623001    0.23526014    0.26030000
opls_272-732    O    0.63132998    0.47144011    0.35045006    -0.53950000
opls_441-733    O    0.61281005    0.43706003    0.21459012    -0.36190000
opls_441-734    O    0.64846996    0.43955989    0.22366988    -0.52340000
opls_441-735    O    0.64934997    0.41807995    0.39560993    -0.30370000
opls_441-736    O    0.84262000    0.27820000    0.72980012    -0.52320000
opls_441-737    O    0.86214999    0.29990013    0.87337960    -0.36320000
opls_272-738    O    0.88090999    0.25212005    0.80980994    -0.53660000
opls_441-739    O    0.87656998    0.28975007    0.68235954    -0.30370000
opls_272-740    O    0.13132998    0.97144011    0.35045006    -0.53950000
opls_441-741    O    0.11281005    0.93706003    0.21459012    -0.36190000
opls_441-742    O    0.14846996    0.93955989    0.22366988    -0.52340000
opls_441-743    O    0.14934997    0.91807995    0.39560993    -0.30370000
opls_441-744    O    0.34262000    0.77820000    0.72980012    -0.52320000
opls_441-745    O    0.36214999    0.79989987    0.87337960    -0.36320000
opls_272-746    O    0.38090999    0.75212005    0.80980994    -0.53660000
opls_441-747    O    0.37656998    0.78975007    0.68235954    -0.30370000
opls_272-748    O    0.36867002    0.47144011    0.64954994    -0.53950000
opls_441-749    O    0.38718995    0.43706003    0.78540988    -0.36190000
opls_441-750    O    0.35153004    0.43955989    0.77633012    -0.52340000
opls_441-751    O    0.35065003    0.41807995    0.60439007    -0.30370000
opls_441-752    O    0.15738000    0.27820000    0.27019988    -0.52320000
opls_441-753    O    0.13784997    0.29990013    0.12661969    -0.36320000
opls_272-754    O    0.11909001    0.25212005    0.19019006    -0.53660000
opls_441-755    O    0.12342998    0.28975007    0.31763976    -0.30370000
opls_272-756    O    0.86867002    0.97144011    0.64954994    -0.53950000
opls_441-757    O    0.88718995    0.93706003    0.78540988    -0.36190000
opls_441-758    O    0.85153004    0.93955989    0.77633012    -0.52340000
opls_441-759    O    0.85065003    0.91807995    0.60439007    -0.30370000
opls_441-760    O    0.65738000    0.77820000    0.27019988    -0.52320000
opls_441-761    O    0.63784997    0.79989987    0.12661969    -0.36320000
opls_272-762    O    0.61909001    0.75212005    0.19019006    -0.53660000
opls_441-763    O    0.62342998    0.78975007    0.31763976    -0.30370000
F2_P_3+5-764    P    0.63387000    0.43781992    0.30323006    1.36700000
F2_P_3+5-765    P    0.86808002    0.28358991    0.77843975    1.38650000
F2_P_3+5-766    P    0.13387000    0.93781992    0.30323006    1.36710000
F2_P_3+5-767    P    0.36808002    0.78358991    0.77843975    1.38650000
F2_P_3+5-768    P    0.36613000    0.43781992    0.69676994    1.36710000
F2_P_3+5-769    P    0.13191998    0.28358991    0.22156025    1.38650000
F2_P_3+5-770    P    0.86613000    0.93781992    0.69676994    1.36700000
F2_P_3+5-771    P    0.63191998    0.78358991    0.22156025    1.38650000
opls_264-772    Cl    0.55823007    0.29849004    0.50738018    -0.06560000
opls_264-773    Cl    0.63465009    0.23035989    0.11045032    -0.06560000
opls_264-774    Cl    0.83712001    0.49184993    0.61212021    -0.06560000
opls_264-775    Cl    0.96304993    0.42984993    0.96801969    -0.06560000
opls_264-776    Cl    0.05823007    0.79849004    0.50738018    -0.06560000
opls_264-777    Cl    0.13465009    0.73035989    0.11045032    -0.06560000
opls_264-778    Cl    0.33712001    0.99184993    0.61212021    -0.06560000
opls_264-779    Cl    0.46304993    0.92984993    0.96801969    -0.06560000
opls_264-780    Cl    0.44176993    0.29849004    0.49261982    -0.06560000
opls_264-781    Cl    0.36534991    0.23035989    0.88954968    -0.06560000
opls_264-782    Cl    0.16287999    0.49184993    0.38787979    -0.06560000
opls_264-783    Cl    0.03695007    0.42984993    0.03198031    -0.06560000
opls_264-784    Cl    0.94176993    0.79849004    0.49261982    -0.06560000
opls_264-785    Cl    0.86534991    0.73035989    0.88954968    -0.06560000
opls_264-786    Cl    0.66287999    0.99184993    0.38787979    -0.06560000
opls_264-787    Cl    0.53695007    0.92984993    0.03198031    -0.06560000
