#======================================================================
# Crystal Data Generated By AuToFF
#----------------------------------------------------------------------

data_AuToFF_phase_1

_cell_length_a                         23.5190
_cell_length_b                         44.4660
_cell_length_c                         18.5200
_cell_angle_alpha                      90.00
_cell_angle_beta                       114.56
_cell_angle_gamma                      90.00
_symmetry_space_group_name_H-M_alt     'P 1'
_symmetry_space_group_IT_number        1

loop_
_space_group_symop_operation_xyz
   'x, y, z'

loop_
   _atom_site_label
   _atom_site_type_symbol
   _atom_site_fract_x
   _atom_site_fract_y
   _atom_site_fract_z
   _atom_site_charge
opls_145-0    C    0.88567997    0.54974003    0.84941008    0.18650000
opls_142-1    C    0.78926009    0.57343004    0.84333013    0.06880000
opls_700-2    C    0.42426022    0.56742005    0.74778035    -0.03220000
opls_700-3    C    0.49039028    0.56592003    0.77696007    -0.02590000
opls_700-4    C    0.51899017    0.56779989    0.72328007    -0.02500000
opls_700-5    C    0.48139012    0.56768992    0.64010036    -0.03100000
opls_700-6    C    0.41532005    0.56585009    0.61094023    -0.02750000
opls_700-7    C    0.38662998    0.56731008    0.66457986    -0.02550000
opls_145-8    C    0.97239986    0.51839990    0.85662991    -0.12520000
opls_145-9    C    0.21653006    0.59139995    0.55363993    -0.13440000
opls_700-10    C    0.18517011    0.56847996    0.57457986    0.05930000
opls_145-11    C    0.22043011    0.54538996    0.62569988    -0.13200000
opls_145-12    C    0.28556013    0.54484010    0.65395998    -0.13050000
opls_700-13    C    0.31697009    0.56781001    0.63344038    0.06860000
opls_145-14    C    0.28198004    0.59115009    0.58310996    -0.13380000
opls_700-15    C    0.01419027    0.54296001    0.88215014    0.07920000
opls_142-16    C    0.11600027    0.56849008    0.54169019    0.06880000
opls_701-17    C    0.82371018    0.53587010    0.49637999    0.00100000
opls_145-18    C    0.74479996    0.56991004    0.38259036    -0.13610000
opls_700-19    C    0.78227009    0.54373004    0.40786006    0.07920000
opls_142-20    C    0.72454982    0.59903994    0.04824004    0.07850000
opls_701-21    C    0.08284024    0.54133990    0.89099015    0.00100000
opls_145-22    C    0.90885009    0.52231008    0.83645999    -0.17270000
opls_145-23    C    0.93446013    0.51309990    0.53114037    -0.12570000
opls_145-24    C    0.53955990    0.59669006    0.57647016    -0.13200000
opls_700-25    C    0.51099021    0.56972991    0.58322038    0.06730000
opls_145-26    C    0.50841002    0.54534993    0.53352996    -0.13380000
opls_145-27    C    0.53278003    0.54821999    0.47669986    -0.09860000
opls_145-28    C    0.56104004    0.57512009    0.47021027    -0.09640000
opls_145-29    C    0.56444001    0.59933005    0.52007998    -0.09640000
opls_145-30    C    0.91482982    0.56476994    0.48739988    -0.12790000
opls_145-31    C    0.75990001    0.75753002    0.77185021    -0.13440000
opls_145-32    C    0.62205021    0.59308011    0.80400014    -0.13090000
opls_700-33    C    0.58857023    0.56924999    0.75443024    0.06860000
opls_145-34    C    0.62136002    0.54682994    0.73434996    -0.12860000
opls_145-35    C    0.68633014    0.54851010    0.76185014    -0.12830000
opls_700-36    C    0.72016033    0.57212005    0.81204045    0.05590000
opls_145-37    C    0.68742996    0.59441011    0.83294002    -0.13440000
opls_145-38    C    0.73642991    0.85768992    0.87654989    -0.12070000
opls_700-39    C    0.67945033    0.87264989    0.83432034    0.05870000
opls_145-40    C    0.62357998    0.85598007    0.79979031    -0.13440000
opls_145-41    C    0.62448016    0.82497998    0.81270004    -0.13280000
opls_700-42    C    0.68112015    0.81062002    0.85989044    0.07100000
opls_145-43    C    0.73726001    0.82684995    0.88927023    -0.12070000
opls_145-44    C    0.02063999    0.54467998    0.53775998    0.18680000
opls_142-45    C    0.26474995    0.54032002    0.27854017    0.06850000
opls_145-46    C    0.66107010    0.66525008    0.73432028    -0.11900000
opls_145-47    C    0.65632999    0.68869001    0.78126015    -0.12080000
opls_145-48    C    0.67937020    0.83699996    0.10094996    -0.13390000
opls_145-49    C    0.33929010    0.59944992    0.86494034    -0.09440000
opls_145-50    C    0.34309006    0.57555998    0.91592025    -0.09440000
opls_145-51    C    0.37236015    0.54873994    0.91122003    -0.09720000
opls_145-52    C    0.39743034    0.54562992    0.85514035    -0.13380000
opls_700-53    C    0.39452009    0.56970989    0.80442997    0.06740000
opls_145-54    C    0.36484023    0.59656996    0.80932017    -0.13240000
opls_145-55    C    0.78235000    0.44658998    0.56185002    0.18680000
opls_145-56    C    0.74195027    0.45978006    0.48948016    -0.17510000
opls_145-57    C    0.75353001    0.48839990    0.46897005    -0.13240000
opls_700-58    C    0.80703009    0.50463995    0.51955991    0.07580000
opls_145-59    C    0.84241014    0.49276009    0.59673983    -0.09200000
opls_145-60    C    0.83180028    0.46354001    0.61626026    -0.17600000
opls_145-61    C    0.92763982    0.57371003    0.88250992    -0.17680000
opls_145-62    C    0.31096021    0.52573989    0.42094017    -0.13380000
opls_700-63    C    0.30628998    0.54686007    0.36244003    0.05520000
opls_145-64    C    0.33812023    0.57444992    0.38571019    -0.13100000
opls_145-65    C    0.37249024    0.58105002    0.46650032    -0.13420000
opls_700-66    C    0.37651006    0.55995007    0.52492031    0.06710000
opls_145-67    C    0.34574035    0.53221000    0.50148036    -0.13280000
opls_700-68    C    0.67912014    0.74216997    0.07286025    0.06710000
opls_700-69    C    0.71997997    0.65343004    0.74805998    0.05230000
opls_145-70    C    0.76936023    0.68843004    0.85723013    -0.11980000
opls_700-71    C    0.71050023    0.70053007    0.84202046    0.06630000
opls_700-72    C    0.61558987    0.84500000    0.07058999    0.05250000
opls_145-73    C    0.07478004    0.46974992    0.76845016    -0.17290000
opls_145-74    C    0.06415009    0.49875995    0.78926008    -0.13500000
opls_700-75    C    0.09923011    0.51017002    0.86703012    0.07580000
opls_145-76    C    0.15187000    0.49343004    0.91769003    -0.13200000
opls_145-77    C    0.16289024    0.46480997    0.89647997    -0.17240000
opls_145-78    C    0.12331010    0.45225003    0.82267042    0.18810000
opls_145-79    C    0.04468026    0.57862007    0.77256026    -0.13240000
opls_700-80    C    0.09405017    0.56319997    0.83381036    0.04430000
opls_145-81    C    0.15467989    0.56525997    0.83576003    -0.13440000
opls_145-82    C    0.16603011    0.58356002    0.78225992    -0.17270000
opls_145-83    C    0.11743012    0.59995007    0.72501008    0.19100000
opls_145-84    C    0.05633999    0.59718999    0.71996018    -0.17270000
opls_145-85    C    0.78403989    0.52448995    0.34844979    -0.13200000
opls_700-86    C    0.89224023    0.53748999    0.50493027    0.07900000
opls_145-87    C    0.77415032    0.66482998    0.81067022    -0.13310000
opls_145-88    C    0.69891985    0.81472991    0.06364979    -0.12090000
opls_145-89    C    0.61977002    0.74315994    0.07402981    -0.13430000
opls_700-90    C    0.81292019    0.55759007    0.55418018    0.04430000
opls_145-91    C    0.86225995    0.57321999    0.61509010    -0.13430000
opls_145-92    C    0.84995019    0.59264989    0.66573042    -0.16580000
opls_145-93    C    0.78888992    0.59639995    0.65842985    0.19140000
opls_145-94    C    0.74041009    0.57869001    0.60382014    -0.17370000
opls_145-95    C    0.75236001    0.55959002    0.55234034    -0.13340000
opls_142-96    C    0.59325003    0.86667004    0.11213977    0.08010000
opls_145-97    C    0.16224989    0.57467998    0.00603008    -0.13610000
opls_700-98    C    0.12403002    0.54879009    0.97970006    0.07870000
opls_145-99    C    0.12160984    0.52929002    0.03821979    -0.12930000
opls_145-100    C    0.15946011    0.53369991    0.11891018    -0.17280000
opls_145-101    C    0.20230009    0.55766991    0.14358025    0.18560000
opls_145-102    C    0.20153977    0.57871003    0.08690985    -0.18340000
opls_145-103    C    0.59656007    0.52478995    0.96421017    -0.13370000
opls_145-104    C    0.56115030    0.53186007    0.88420015    -0.13310000
opls_700-105    C    0.52945013    0.55946004    0.86265999    0.06860000
opls_145-106    C    0.53317020    0.57980007    0.92258024    -0.13380000
opls_145-107    C    0.56797007    0.57251990    0.00290016    -0.13070000
opls_700-108    C    0.60086998    0.54512009    0.02420997    0.06480000
opls_700-109    C    0.67442002    0.77521994    0.96016003    -0.00270000
opls_700-110    C    0.68552003    0.74678991    0.99706006    0.00230000
opls_700-111    C    0.70177016    0.72259007    0.96072997    -0.00210000
opls_700-112    C    0.70501013    0.72669995    0.88696020    -0.00220000
opls_700-113    C    0.69635989    0.75540998    0.85175990    0.00040000
opls_700-114    C    0.68172035    0.77974003    0.88910044    -0.00270000
opls_145-115    C    0.57216016    0.83111996    0.00148006    -0.12290000
opls_145-116    C    0.59177014    0.80877997    0.96443043    -0.12090000
opls_145-117    C    0.77502013    0.64935996    0.05810000    -0.13340000
opls_145-118    C    0.76890005    0.67948005    0.03475029    -0.13140000
opls_700-119    C    0.70915033    0.69223002    0.99544048    0.07140000
opls_145-120    C    0.65576024    0.67540998    0.98408028    -0.12070000
opls_145-121    C    0.66178978    0.64540008    0.00735994    -0.12290000
opls_700-122    C    0.72120009    0.63190010    0.04212982    0.05290000
opls_145-123    C    0.70465020    0.55390995    0.24415025    0.18580000
opls_142-124    C    0.64264023    0.53787006    0.10764022    0.06940000
opls_145-125    C    0.70583000    0.57457001    0.30185011    -0.18510000
opls_142-126    C    0.67914029    0.90557010    0.83814012    0.07660000
opls_700-127    C    0.65500015    0.80034004    0.99606029    0.06670000
opls_145-128    C    0.64768998    0.76602011    0.70534004    -0.13440000
opls_145-129    C    0.74666995    0.52959002    0.26786033    -0.17850000
opls_145-130    C    0.72617977    0.73158008    0.21482983    -0.10020000
opls_145-131    C    0.73235007    0.73630999    0.14369009    -0.13380000
opls_145-132    C    0.71067018    0.76755004    0.62999996    -0.10080000
opls_700-133    C    0.70147003    0.75984010    0.77519029    0.06730000
opls_145-134    C    0.65237004    0.76991994    0.63303014    -0.10030000
opls_145-135    C    0.76438007    0.76137004    0.69938001    -0.10050000
opls_145-136    C    0.99111999    0.57027999    0.89883038    -0.13600000
opls_142-137    C    0.72414026    0.62980997    0.69550027    0.07680000
opls_145-138    C    0.61386024    0.73856002    0.14536013    -0.10020000
opls_145-139    C    0.66699989    0.73274007    0.21571027    -0.10140000
opls_145-140    C    0.99802030    0.51727994    0.55176031    -0.17910000
opls_145-141    C    0.97811001    0.56830994    0.50313022    -0.18110000
opls_145-142    C    0.88567987    0.45025997    0.34940979    0.18650000
opls_142-143    C    0.78925999    0.42656996    0.34332984    0.06880000
opls_700-144    C    0.42426012    0.43257995    0.24778006    -0.03220000
opls_700-145    C    0.49038976    0.43407997    0.27695978    -0.02590000
opls_700-146    C    0.51899008    0.43220011    0.22327978    -0.02480000
opls_700-147    C    0.48139002    0.43231008    0.14010006    -0.03100000
opls_700-148    C    0.41531995    0.43414991    0.11093993    -0.02750000
opls_700-149    C    0.38663007    0.43268992    0.16458015    -0.02550000
opls_145-150    C    0.97239996    0.48160010    0.35663021    -0.12520000
opls_145-151    C    0.21653016    0.40860005    0.05364022    -0.13440000
opls_700-152    C    0.18517021    0.43152004    0.07458016    0.05930000
opls_145-153    C    0.22043021    0.45461004    0.12570018    -0.13200000
opls_145-154    C    0.28556023    0.45515990    0.15396028    -0.13040000
opls_700-155    C    0.31696999    0.43218999    0.13344008    0.06860000
opls_145-156    C    0.28198014    0.40884991    0.08311026    -0.13380000
opls_700-157    C    0.01419018    0.45703999    0.38214985    0.07920000
opls_142-158    C    0.11600017    0.43150992    0.04168989    0.06880000
opls_701-159    C    0.82371028    0.46412990    0.99638029    0.00100000
opls_145-160    C    0.74480029    0.43008996    0.88259007    -0.13610000
opls_700-161    C    0.78227018    0.45626996    0.90786036    0.07920000
opls_142-162    C    0.72455034    0.40096006    0.54824034    0.07850000
opls_701-163    C    0.08284015    0.45866010    0.39098985    0.00100000
opls_145-164    C    0.90885019    0.47768992    0.33646028    -0.17270000
opls_145-165    C    0.93446004    0.48690010    0.03114008    -0.12570000
opls_145-166    C    0.53955980    0.40330994    0.07646987    -0.13200000
opls_700-167    C    0.51099011    0.43027009    0.08322009    0.06720000
opls_145-168    C    0.50841011    0.45465007    0.03353026    -0.13380000
opls_145-169    C    0.53278013    0.45178001    0.97670016    -0.09870000
opls_145-170    C    0.56103994    0.42487991    0.97020997    -0.09640000
opls_145-171    C    0.56444011    0.40066995    0.02008028    -0.09640000
opls_145-172    C    0.91482991    0.43523006    0.98740018    -0.12780000
opls_145-173    C    0.75989992    0.24246998    0.27184991    -0.13440000
opls_145-174    C    0.62205011    0.40691989    0.30399985    -0.13080000
opls_700-175    C    0.58857013    0.43075001    0.25442994    0.06860000
opls_145-176    C    0.62136012    0.45317006    0.23435026    -0.12860000
opls_145-177    C    0.68633004    0.45148990    0.26184985    -0.12940000
opls_700-178    C    0.72016023    0.42787995    0.31204015    0.05590000
opls_145-179    C    0.68743006    0.40558989    0.33294031    -0.13440000
opls_145-180    C    0.73643001    0.14231008    0.37655019    -0.12070000
opls_700-181    C    0.67945023    0.12735011    0.33432004    0.05870000
opls_145-182    C    0.62357989    0.14401993    0.29979001    -0.13440000
opls_145-183    C    0.62448025    0.17502002    0.31270033    -0.13280000
opls_700-184    C    0.68112006    0.18937998    0.35989014    0.07100000
opls_145-185    C    0.73725991    0.17315005    0.38926994    -0.12070000
opls_145-186    C    0.02064008    0.45532002    0.03776028    0.18680000
opls_142-187    C    0.26474985    0.45967998    0.77853987    0.06850000
opls_145-188    C    0.66107001    0.33474992    0.23431998    -0.11910000
opls_145-189    C    0.65632989    0.31130999    0.28125985    -0.12080000
opls_145-190    C    0.67937029    0.16300004    0.60095026    -0.13390000
opls_145-191    C    0.33929000    0.40055008    0.36494005    -0.09440000
opls_145-192    C    0.34308996    0.42444002    0.41591996    -0.09440000
opls_145-193    C    0.37236025    0.45126006    0.41122033    -0.09720000
opls_145-194    C    0.39743025    0.45437008    0.35514005    -0.13380000
opls_700-195    C    0.39452019    0.43029011    0.30443027    0.06740000
opls_145-196    C    0.36484014    0.40343004    0.30931988    -0.13240000
opls_145-197    C    0.78234990    0.55341002    0.06184973    0.18680000
opls_145-198    C    0.74195037    0.54021994    0.98948046    -0.17510000
opls_145-199    C    0.75353011    0.51160010    0.96897035    -0.13240000
opls_700-200    C    0.80703018    0.49536005    0.01956021    0.07580000
opls_145-201    C    0.84241024    0.50723991    0.09674012    -0.09200000
opls_145-202    C    0.83180018    0.53645999    0.11625996    -0.17600000
opls_145-203    C    0.92763992    0.42628997    0.38251022    -0.17680000
opls_145-204    C    0.31096031    0.47426011    0.92094047    -0.13380000
opls_700-205    C    0.30629008    0.45313993    0.86244033    0.05520000
opls_145-206    C    0.33812013    0.42555008    0.88570989    -0.13100000
opls_145-207    C    0.37249014    0.41894998    0.96650002    -0.13430000
opls_700-208    C    0.37650996    0.44004993    0.02492002    0.06710000
opls_145-209    C    0.34573982    0.46779000    0.00148006    -0.13270000
opls_700-210    C    0.67912005    0.25783003    0.57285995    0.06710000
opls_700-211    C    0.71998007    0.34656996    0.24806028    0.05230000
opls_145-212    C    0.76936014    0.31156996    0.35722983    -0.11980000
opls_700-213    C    0.71050014    0.29946993    0.34202016    0.06620000
opls_700-214    C    0.61558996    0.15500000    0.57059029    0.05250000
opls_145-215    C    0.07477994    0.53025008    0.26844987    -0.17290000
opls_145-216    C    0.06414999    0.50124005    0.28925979    -0.13500000
opls_700-217    C    0.09923001    0.48982998    0.36702983    0.07580000
opls_145-218    C    0.15187010    0.50656996    0.41769033    -0.13200000
opls_145-219    C    0.16288991    0.53519003    0.39648027    -0.17250000
opls_145-220    C    0.12331000    0.54774997    0.32267012    0.18810000
opls_145-221    C    0.04468016    0.42137993    0.27255996    -0.13230000
opls_700-222    C    0.09405007    0.43680003    0.33381006    0.04430000
opls_145-223    C    0.15467999    0.43474003    0.33576033    -0.13430000
opls_145-224    C    0.16603021    0.41643998    0.28226021    -0.17270000
opls_145-225    C    0.11743003    0.40004993    0.22500978    0.19100000
opls_145-226    C    0.05633989    0.40281001    0.21995988    -0.17270000
opls_145-227    C    0.78403998    0.47551005    0.84845009    -0.13200000
opls_700-228    C    0.89224013    0.46251001    0.00492998    0.07900000
opls_145-229    C    0.77414980    0.33517002    0.31066992    -0.13310000
opls_145-230    C    0.69891994    0.18527009    0.56365008    -0.12090000
opls_145-231    C    0.61977012    0.25684006    0.57403011    -0.13430000
opls_700-232    C    0.81292009    0.44240993    0.05417988    0.04430000
opls_145-233    C    0.86225985    0.42678001    0.11508980    -0.13440000
opls_145-234    C    0.84995010    0.40735011    0.16573013    -0.16580000
opls_145-235    C    0.78889001    0.40360005    0.15843015    0.19140000
opls_145-236    C    0.74041000    0.42130999    0.10381984    -0.17370000
opls_145-237    C    0.75235992    0.44040998    0.05234005    -0.13340000
opls_142-238    C    0.59325012    0.13332996    0.61214007    0.08010000
opls_145-239    C    0.16224999    0.42532002    0.50603038    -0.13610000
opls_700-240    C    0.12403011    0.45120991    0.47970035    0.07870000
opls_145-241    C    0.12160994    0.47070998    0.53822009    -0.12940000
opls_145-242    C    0.15946001    0.46630009    0.61890988    -0.17600000
opls_145-243    C    0.20229999    0.44233009    0.64357996    0.18560000
opls_145-244    C    0.20154029    0.42128997    0.58691015    -0.18340000
opls_145-245    C    0.59655997    0.47521005    0.46420987    -0.13380000
opls_145-246    C    0.56114978    0.46813993    0.38419985    -0.13310000
opls_700-247    C    0.52945022    0.44053996    0.36266029    0.06860000
opls_145-248    C    0.53317010    0.42019993    0.42257994    -0.13380000
opls_145-249    C    0.56796998    0.42748010    0.50289986    -0.13070000
opls_700-250    C    0.60087008    0.45487991    0.52421026    0.06480000
opls_700-251    C    0.67442012    0.22478006    0.46016033    -0.00270000
opls_700-252    C    0.68552013    0.25321009    0.49706036    0.00230000
opls_700-253    C    0.70177026    0.27740993    0.46073027    -0.00210000
opls_700-254    C    0.70501004    0.27330005    0.38695990    -0.00220000
opls_700-255    C    0.69635999    0.24459002    0.35176019    0.00040000
opls_700-256    C    0.68172025    0.22025997    0.38910014    -0.00270000
opls_145-257    C    0.57216026    0.16888004    0.50148036    -0.12290000
opls_145-258    C    0.59177005    0.19122003    0.46443013    -0.12080000
opls_145-259    C    0.77502023    0.35064004    0.55810030    -0.13350000
opls_145-260    C    0.76889996    0.32051995    0.53474999    -0.13140000
opls_700-261    C    0.70915023    0.30776998    0.49544019    0.07140000
opls_145-262    C    0.65576014    0.32459002    0.48407998    -0.12070000
opls_145-263    C    0.66179030    0.35459992    0.50736024    -0.12290000
opls_700-264    C    0.72120019    0.36809990    0.54213011    0.05290000
opls_145-265    C    0.70465011    0.44609005    0.74414996    0.18580000
opls_142-266    C    0.64264013    0.46212994    0.60763992    0.06940000
opls_145-267    C    0.70583010    0.42542999    0.80185040    -0.18520000
opls_142-268    C    0.67913977    0.09442990    0.33813982    0.07660000
opls_700-269    C    0.65500005    0.19965996    0.49606000    0.06660000
opls_145-270    C    0.64769008    0.23397989    0.20534033    -0.13440000
opls_145-271    C    0.74666986    0.47040998    0.76786004    -0.17850000
opls_145-272    C    0.72618029    0.26841992    0.71483013    -0.10020000
opls_145-273    C    0.73235017    0.26369001    0.64369038    -0.13380000
opls_145-274    C    0.71067027    0.23244996    0.13000026    -0.10080000
opls_700-275    C    0.70146993    0.24015990    0.27518999    0.06730000
opls_145-276    C    0.65236995    0.23008006    0.13302984    -0.10030000
opls_145-277    C    0.76438016    0.23862996    0.19938031    -0.10050000
opls_145-278    C    0.99111990    0.42972001    0.39883008    -0.13600000
opls_142-279    C    0.72414017    0.37019003    0.19549997    0.07690000
opls_145-280    C    0.61386033    0.26143998    0.64536042    -0.10020000
opls_145-281    C    0.66700022    0.26725993    0.71570997    -0.10140000
opls_145-282    C    0.99802021    0.48272006    0.05176002    -0.17910000
opls_145-283    C    0.97810991    0.43169006    0.00312992    -0.18110000
opls_145-284    C    0.38567997    0.04974003    0.84941008    0.18650000
opls_142-285    C    0.28926009    0.07343004    0.84333013    0.06880000
opls_700-286    C    0.92426022    0.06742005    0.74778035    -0.03220000
opls_700-287    C    0.99039028    0.06592003    0.77696007    -0.02590000
opls_700-288    C    0.01899017    0.06779989    0.72328007    -0.02500000
opls_700-289    C    0.98139012    0.06768992    0.64010036    -0.03100000
opls_700-290    C    0.91532005    0.06585009    0.61094023    -0.02750000
opls_700-291    C    0.88662998    0.06731008    0.66457986    -0.02550000
opls_145-292    C    0.47239986    0.01839990    0.85662991    -0.12520000
opls_145-293    C    0.71653006    0.09139995    0.55363993    -0.13440000
opls_700-294    C    0.68517011    0.06847996    0.57457986    0.05930000
opls_145-295    C    0.72043011    0.04538996    0.62569988    -0.13200000
opls_145-296    C    0.78556013    0.04484010    0.65395998    -0.13050000
opls_700-297    C    0.81697009    0.06781001    0.63344038    0.06860000
opls_145-298    C    0.78198004    0.09115009    0.58310996    -0.13380000
opls_700-299    C    0.51419027    0.04296001    0.88215014    0.07920000
opls_142-300    C    0.61600027    0.06849008    0.54169019    0.06880000
opls_701-301    C    0.32371018    0.03587010    0.49637999    0.00100000
opls_145-302    C    0.24479996    0.06991004    0.38259036    -0.13600000
opls_700-303    C    0.28227009    0.04373004    0.40786006    0.07920000
opls_142-304    C    0.22454982    0.09903994    0.04824004    0.07850000
opls_701-305    C    0.58284024    0.04133990    0.89099015    0.00100000
opls_145-306    C    0.40885009    0.02231008    0.83645999    -0.17270000
opls_145-307    C    0.43446013    0.01309990    0.53114037    -0.12570000
opls_145-308    C    0.03955990    0.09669006    0.57647016    -0.13200000
opls_700-309    C    0.01099021    0.06972991    0.58322038    0.06720000
opls_145-310    C    0.00841002    0.04534993    0.53352996    -0.13380000
opls_145-311    C    0.03278003    0.04821999    0.47669986    -0.09870000
opls_145-312    C    0.06104004    0.07512009    0.47021027    -0.09640000
opls_145-313    C    0.06444001    0.09933005    0.52007998    -0.09640000
opls_145-314    C    0.41482982    0.06476994    0.48739988    -0.12790000
opls_145-315    C    0.25990001    0.25753002    0.77185021    -0.13440000
opls_145-316    C    0.12205021    0.09308011    0.80400014    -0.13080000
opls_700-317    C    0.08857023    0.06924999    0.75443024    0.06860000
opls_145-318    C    0.12136002    0.04682994    0.73434996    -0.12860000
opls_145-319    C    0.18633014    0.04851010    0.76185014    -0.12830000
opls_700-320    C    0.22016033    0.07212005    0.81204045    0.05590000
opls_145-321    C    0.18742996    0.09441011    0.83294002    -0.13440000
opls_145-322    C    0.23642991    0.35768992    0.87654989    -0.12070000
opls_700-323    C    0.17945033    0.37264989    0.83432034    0.05870000
opls_145-324    C    0.12357998    0.35598007    0.79979031    -0.13440000
opls_145-325    C    0.12448016    0.32497998    0.81270004    -0.13280000
opls_700-326    C    0.18112015    0.31062002    0.85989044    0.07100000
opls_145-327    C    0.23726001    0.32684995    0.88927023    -0.12070000
opls_145-328    C    0.52063999    0.04467998    0.53775998    0.18680000
opls_142-329    C    0.76474995    0.04032002    0.27854017    0.06850000
opls_145-330    C    0.16107010    0.16525008    0.73432028    -0.11910000
opls_145-331    C    0.15632999    0.18869001    0.78126015    -0.12080000
opls_145-332    C    0.17937020    0.33699996    0.10094996    -0.13390000
opls_145-333    C    0.83929010    0.09944992    0.86494034    -0.09440000
opls_145-334    C    0.84309006    0.07555998    0.91592025    -0.09440000
opls_145-335    C    0.87236015    0.04873994    0.91122003    -0.09720000
opls_145-336    C    0.89743034    0.04562992    0.85514035    -0.13370000
opls_700-337    C    0.89452009    0.06970989    0.80442997    0.06740000
opls_145-338    C    0.86484023    0.09656996    0.80932017    -0.13240000
opls_145-339    C    0.28235000    0.94658998    0.56185002    0.18690000
opls_145-340    C    0.24195027    0.95978006    0.48948016    -0.17510000
opls_145-341    C    0.25353001    0.98839990    0.46897005    -0.13240000
opls_700-342    C    0.30703009    0.00463995    0.51955991    0.07580000
opls_145-343    C    0.34241014    0.99276009    0.59673983    -0.09200000
opls_145-344    C    0.33180028    0.96354001    0.61626026    -0.17600000
opls_145-345    C    0.42763982    0.07371003    0.88250992    -0.17680000
opls_145-346    C    0.81096021    0.02573989    0.42094017    -0.13380000
opls_700-347    C    0.80628998    0.04686007    0.36244003    0.05520000
opls_145-348    C    0.83812023    0.07444992    0.38571019    -0.13100000
opls_145-349    C    0.87249024    0.08105002    0.46650032    -0.13430000
opls_700-350    C    0.87651006    0.05995007    0.52492031    0.06710000
opls_145-351    C    0.84574035    0.03221000    0.50148036    -0.13280000
opls_700-352    C    0.17912014    0.24216997    0.07286025    0.06710000
opls_700-353    C    0.21997997    0.15343004    0.74805998    0.05230000
opls_145-354    C    0.26936023    0.18843004    0.85723013    -0.11980000
opls_700-355    C    0.21050023    0.20053007    0.84202046    0.06620000
opls_700-356    C    0.11558987    0.34500000    0.07058999    0.05250000
opls_145-357    C    0.57478004    0.96974992    0.76845016    -0.17290000
opls_145-358    C    0.56415009    0.99875995    0.78926008    -0.13500000
opls_700-359    C    0.59923011    0.01017002    0.86703012    0.07580000
opls_145-360    C    0.65187000    0.99343004    0.91769003    -0.13200000
opls_145-361    C    0.66289024    0.96480997    0.89647997    -0.17250000
opls_145-362    C    0.62331010    0.95225003    0.82267042    0.18810000
opls_145-363    C    0.54468026    0.07862007    0.77256026    -0.13240000
opls_700-364    C    0.59405017    0.06319997    0.83381036    0.04430000
opls_145-365    C    0.65467989    0.06525997    0.83576003    -0.13440000
opls_145-366    C    0.66603011    0.08356002    0.78225992    -0.17270000
opls_145-367    C    0.61743012    0.09995007    0.72501008    0.19100000
opls_145-368    C    0.55633999    0.09718999    0.71996018    -0.17270000
opls_145-369    C    0.28403989    0.02448995    0.34844979    -0.13200000
opls_700-370    C    0.39224023    0.03748999    0.50493027    0.07900000
opls_145-371    C    0.27415032    0.16482998    0.81067022    -0.13310000
opls_145-372    C    0.19891985    0.31472991    0.06364979    -0.12090000
opls_145-373    C    0.11977002    0.24315994    0.07402981    -0.13430000
opls_700-374    C    0.31292019    0.05759007    0.55418018    0.04430000
opls_145-375    C    0.36225995    0.07321999    0.61509010    -0.13440000
opls_145-376    C    0.34995019    0.09264989    0.66573042    -0.16580000
opls_145-377    C    0.28888992    0.09639995    0.65842985    0.19150000
opls_145-378    C    0.24041009    0.07869001    0.60382014    -0.17370000
opls_145-379    C    0.25236001    0.05959002    0.55234034    -0.13330000
opls_142-380    C    0.09325003    0.36667004    0.11213977    0.08010000
opls_145-381    C    0.66224989    0.07467998    0.00603008    -0.13610000
opls_700-382    C    0.62403002    0.04879009    0.97970006    0.07870000
opls_145-383    C    0.62160984    0.02929002    0.03821979    -0.12940000
opls_145-384    C    0.65946011    0.03369991    0.11891018    -0.17280000
opls_145-385    C    0.70230009    0.05766991    0.14358025    0.18560000
opls_145-386    C    0.70153977    0.07871003    0.08690985    -0.18340000
opls_145-387    C    0.09656007    0.02478995    0.96421017    -0.13380000
opls_145-388    C    0.06115030    0.03186007    0.88420015    -0.13310000
opls_700-389    C    0.02945013    0.05946004    0.86265999    0.06860000
opls_145-390    C    0.03317020    0.07980007    0.92258024    -0.13380000
opls_145-391    C    0.06797007    0.07251990    0.00290016    -0.13070000
opls_700-392    C    0.10086998    0.04512009    0.02420997    0.06480000
opls_700-393    C    0.17442002    0.27521994    0.96016003    -0.00270000
opls_700-394    C    0.18552003    0.24678991    0.99706006    0.00230000
opls_700-395    C    0.20177016    0.22259007    0.96072997    -0.00210000
opls_700-396    C    0.20501013    0.22669995    0.88696020    -0.00220000
opls_700-397    C    0.19635989    0.25540998    0.85175990    0.00040000
opls_700-398    C    0.18172035    0.27974003    0.88910044    -0.00270000
opls_145-399    C    0.07216016    0.33111996    0.00148006    -0.12290000
opls_145-400    C    0.09177014    0.30877997    0.96443043    -0.12090000
opls_145-401    C    0.27502013    0.14935996    0.05810000    -0.13350000
opls_145-402    C    0.26890005    0.17948005    0.03475029    -0.13140000
opls_700-403    C    0.20915033    0.19223002    0.99544048    0.07140000
opls_145-404    C    0.15576024    0.17540998    0.98408028    -0.12060000
opls_145-405    C    0.16178978    0.14540008    0.00735994    -0.12290000
opls_700-406    C    0.22120009    0.13190010    0.04212982    0.05290000
opls_145-407    C    0.20465020    0.05390995    0.24415025    0.18580000
opls_142-408    C    0.14264023    0.03787006    0.10764022    0.06940000
opls_145-409    C    0.20583000    0.07457001    0.30185011    -0.18530000
opls_142-410    C    0.17914029    0.40557010    0.83814012    0.07660000
opls_700-411    C    0.15500015    0.30034004    0.99606029    0.06660000
opls_145-412    C    0.14768998    0.26602011    0.70534004    -0.13440000
opls_145-413    C    0.24666995    0.02959002    0.26786033    -0.17850000
opls_145-414    C    0.22617977    0.23158008    0.21482983    -0.10020000
opls_145-415    C    0.23235007    0.23630999    0.14369009    -0.13380000
opls_145-416    C    0.21067018    0.26755004    0.62999996    -0.10080000
opls_700-417    C    0.20147003    0.25984010    0.77519029    0.06730000
opls_145-418    C    0.15237004    0.26991994    0.63303014    -0.10030000
opls_145-419    C    0.26438007    0.26137004    0.69938001    -0.10050000
opls_145-420    C    0.49111999    0.07027999    0.89883038    -0.13610000
opls_142-421    C    0.22414026    0.12980997    0.69550027    0.07680000
opls_145-422    C    0.11386024    0.23856002    0.14536013    -0.10020000
opls_145-423    C    0.16699989    0.23274007    0.21571027    -0.10140000
opls_145-424    C    0.49802030    0.01727994    0.55176031    -0.17910000
opls_145-425    C    0.47811001    0.06830994    0.50313022    -0.18110000
opls_145-426    C    0.38567987    0.95025997    0.34940979    0.18650000
opls_142-427    C    0.28925999    0.92656996    0.34332984    0.06880000
opls_700-428    C    0.92426012    0.93257995    0.24778006    -0.03220000
opls_700-429    C    0.99038976    0.93407997    0.27695978    -0.02590000
opls_700-430    C    0.01899008    0.93220011    0.22327978    -0.02490000
opls_700-431    C    0.98139002    0.93231008    0.14010006    -0.03100000
opls_700-432    C    0.91531995    0.93414991    0.11093993    -0.02750000
opls_700-433    C    0.88663007    0.93268992    0.16458015    -0.02550000
opls_145-434    C    0.47239996    0.98160010    0.35663021    -0.12520000
opls_145-435    C    0.71653016    0.90860005    0.05364022    -0.13440000
opls_700-436    C    0.68517021    0.93152004    0.07458016    0.05930000
opls_145-437    C    0.72043021    0.95461004    0.12570018    -0.13200000
opls_145-438    C    0.78556023    0.95515990    0.15396028    -0.13030000
opls_700-439    C    0.81696999    0.93218999    0.13344008    0.06860000
opls_145-440    C    0.78198014    0.90884991    0.08311026    -0.13380000
opls_700-441    C    0.51419018    0.95703999    0.38214985    0.07920000
opls_142-442    C    0.61600017    0.93150992    0.04168989    0.06880000
opls_701-443    C    0.32371028    0.96412990    0.99638029    0.00100000
opls_145-444    C    0.24480029    0.93008996    0.88259007    -0.13610000
opls_700-445    C    0.28227018    0.95626996    0.90786036    0.07920000
opls_142-446    C    0.22455034    0.90096006    0.54824034    0.07850000
opls_701-447    C    0.58284015    0.95866010    0.39098985    0.00100000
opls_145-448    C    0.40885019    0.97768992    0.33646028    -0.17270000
opls_145-449    C    0.43446004    0.98690010    0.03114008    -0.12570000
opls_145-450    C    0.03955980    0.90330994    0.07646987    -0.13190000
opls_700-451    C    0.01099011    0.93027009    0.08322009    0.06720000
opls_145-452    C    0.00841011    0.95465007    0.03353026    -0.13380000
opls_145-453    C    0.03278013    0.95178001    0.97670016    -0.09870000
opls_145-454    C    0.06103994    0.92487991    0.97020997    -0.09640000
opls_145-455    C    0.06444011    0.90066995    0.02008028    -0.09640000
opls_145-456    C    0.41482991    0.93523006    0.98740018    -0.12790000
opls_145-457    C    0.25989992    0.74246998    0.27184991    -0.13440000
opls_145-458    C    0.12205011    0.90691989    0.30399985    -0.13090000
opls_700-459    C    0.08857013    0.93075001    0.25442994    0.06860000
opls_145-460    C    0.12136012    0.95317006    0.23435026    -0.12860000
opls_145-461    C    0.18633004    0.95148990    0.26184985    -0.12940000
opls_700-462    C    0.22016023    0.92787995    0.31204015    0.05590000
opls_145-463    C    0.18743006    0.90558989    0.33294031    -0.13440000
opls_145-464    C    0.23643001    0.64231008    0.37655019    -0.12050000
opls_700-465    C    0.17945023    0.62735011    0.33432004    0.05870000
opls_145-466    C    0.12357989    0.64401993    0.29979001    -0.13430000
opls_145-467    C    0.12448025    0.67502002    0.31270033    -0.13280000
opls_700-468    C    0.18112006    0.68937998    0.35989014    0.07100000
opls_145-469    C    0.23725991    0.67315005    0.38926994    -0.12070000
opls_145-470    C    0.52064008    0.95532002    0.03776028    0.18680000
opls_142-471    C    0.76474985    0.95967998    0.77853987    0.06850000
opls_145-472    C    0.16107001    0.83474992    0.23431998    -0.11910000
opls_145-473    C    0.15632989    0.81130999    0.28125985    -0.12080000
opls_145-474    C    0.17937029    0.66300004    0.60095026    -0.13390000
opls_145-475    C    0.83929000    0.90055008    0.36494005    -0.09440000
opls_145-476    C    0.84308996    0.92444002    0.41591996    -0.09440000
opls_145-477    C    0.87236025    0.95126006    0.41122033    -0.09720000
opls_145-478    C    0.89743025    0.95437008    0.35514005    -0.13380000
opls_700-479    C    0.89452019    0.93029011    0.30443027    0.06740000
opls_145-480    C    0.86484014    0.90343004    0.30931988    -0.13240000
opls_145-481    C    0.28234990    0.05341002    0.06184973    0.18680000
opls_145-482    C    0.24195037    0.04021994    0.98948046    -0.17500000
opls_145-483    C    0.25353011    0.01160010    0.96897035    -0.13240000
opls_700-484    C    0.30703018    0.99536005    0.01956021    0.07580000
opls_145-485    C    0.34241024    0.00723991    0.09674012    -0.09200000
opls_145-486    C    0.33180018    0.03645999    0.11625996    -0.17600000
opls_145-487    C    0.42763992    0.92628997    0.38251022    -0.17670000
opls_145-488    C    0.81096031    0.97426011    0.92094047    -0.13380000
opls_700-489    C    0.80629008    0.95313993    0.86244033    0.05520000
opls_145-490    C    0.83812013    0.92555008    0.88570989    -0.13100000
opls_145-491    C    0.87249014    0.91894998    0.96650002    -0.13430000
opls_700-492    C    0.87650996    0.94004993    0.02492002    0.06720000
opls_145-493    C    0.84573982    0.96779000    0.00148006    -0.13280000
opls_700-494    C    0.17912005    0.75783003    0.57285995    0.06710000
opls_700-495    C    0.21998007    0.84656996    0.24806028    0.05240000
opls_145-496    C    0.26936014    0.81156996    0.35722983    -0.11980000
opls_700-497    C    0.21050014    0.79946993    0.34202016    0.06620000
opls_700-498    C    0.11558996    0.65500000    0.57059029    0.05250000
opls_145-499    C    0.57477994    0.03025008    0.26844987    -0.17290000
opls_145-500    C    0.56414999    0.00124005    0.28925979    -0.13500000
opls_700-501    C    0.59923001    0.98982998    0.36702983    0.07580000
opls_145-502    C    0.65187010    0.00656996    0.41769033    -0.13200000
opls_145-503    C    0.66288991    0.03519003    0.39648027    -0.17250000
opls_145-504    C    0.62331000    0.04774997    0.32267012    0.18810000
opls_145-505    C    0.54468016    0.92137993    0.27255996    -0.13240000
opls_700-506    C    0.59405007    0.93680003    0.33381006    0.04430000
opls_145-507    C    0.65467999    0.93474003    0.33576033    -0.13440000
opls_145-508    C    0.66603021    0.91643998    0.28226021    -0.17270000
opls_145-509    C    0.61743003    0.90004993    0.22500978    0.19100000
opls_145-510    C    0.55633989    0.90281001    0.21995988    -0.17270000
opls_145-511    C    0.28403998    0.97551005    0.84845009    -0.13200000
opls_700-512    C    0.39224013    0.96251001    0.00492998    0.07900000
opls_145-513    C    0.27414980    0.83517002    0.31066992    -0.13310000
opls_145-514    C    0.19891994    0.68527009    0.56365008    -0.12090000
opls_145-515    C    0.11977012    0.75684006    0.57403011    -0.13430000
opls_700-516    C    0.31292009    0.94240993    0.05417988    0.04430000
opls_145-517    C    0.36225985    0.92678001    0.11508980    -0.13440000
opls_145-518    C    0.34995010    0.90735011    0.16573013    -0.16580000
opls_145-519    C    0.28889001    0.90360005    0.15843015    0.19140000
opls_145-520    C    0.24041000    0.92130999    0.10381984    -0.17370000
opls_145-521    C    0.25235992    0.94040998    0.05234005    -0.13340000
opls_142-522    C    0.09325012    0.63332996    0.61214007    0.08010000
opls_145-523    C    0.66224999    0.92532002    0.50603038    -0.13610000
opls_700-524    C    0.62403011    0.95120991    0.47970035    0.07870000
opls_145-525    C    0.62160994    0.97070998    0.53822009    -0.12940000
opls_145-526    C    0.65946001    0.96630009    0.61890988    -0.17600000
opls_145-527    C    0.70229999    0.94233009    0.64357996    0.18560000
opls_145-528    C    0.70154029    0.92128997    0.58691015    -0.18340000
opls_145-529    C    0.09655997    0.97521005    0.46420987    -0.13380000
opls_145-530    C    0.06114978    0.96813993    0.38419985    -0.13310000
opls_700-531    C    0.02945022    0.94053996    0.36266029    0.06860000
opls_145-532    C    0.03317010    0.92019993    0.42257994    -0.13380000
opls_145-533    C    0.06796998    0.92748010    0.50289986    -0.13070000
opls_700-534    C    0.10087008    0.95487991    0.52421026    0.06480000
opls_700-535    C    0.17442012    0.72478006    0.46016033    -0.00270000
opls_700-536    C    0.18552013    0.75321009    0.49706036    0.00230000
opls_700-537    C    0.20177026    0.77740993    0.46073027    -0.00210000
opls_700-538    C    0.20501004    0.77330005    0.38695990    -0.00220000
opls_700-539    C    0.19635999    0.74459002    0.35176019    0.00040000
opls_700-540    C    0.18172025    0.72025997    0.38910014    -0.00270000
opls_145-541    C    0.07216026    0.66888004    0.50148036    -0.12290000
opls_145-542    C    0.09177005    0.69122003    0.46443013    -0.12090000
opls_145-543    C    0.27502023    0.85064004    0.55810030    -0.13350000
opls_145-544    C    0.26889996    0.82051995    0.53474999    -0.13140000
opls_700-545    C    0.20915023    0.80776998    0.49544019    0.07140000
opls_145-546    C    0.15576014    0.82459002    0.48407998    -0.12070000
opls_145-547    C    0.16179030    0.85459992    0.50736024    -0.12290000
opls_700-548    C    0.22120019    0.86809990    0.54213011    0.05290000
opls_145-549    C    0.20465011    0.94609005    0.74414996    0.18590000
opls_142-550    C    0.14264013    0.96212994    0.60763992    0.06940000
opls_145-551    C    0.20583010    0.92542999    0.80185040    -0.18530000
opls_142-552    C    0.17913977    0.59442990    0.33813982    0.07660000
opls_700-553    C    0.15500005    0.69965996    0.49606000    0.06660000
opls_145-554    C    0.14769008    0.73397989    0.20534033    -0.13440000
opls_145-555    C    0.24666986    0.97040998    0.76786004    -0.17840000
opls_145-556    C    0.22618029    0.76841992    0.71483013    -0.10020000
opls_145-557    C    0.23235017    0.76369001    0.64369038    -0.13380000
opls_145-558    C    0.21067027    0.73244996    0.13000026    -0.10080000
opls_700-559    C    0.20146993    0.74015990    0.27518999    0.06730000
opls_145-560    C    0.15236995    0.73008006    0.13302984    -0.10030000
opls_145-561    C    0.26438016    0.73862996    0.19938031    -0.10050000
opls_145-562    C    0.49111990    0.92972001    0.39883008    -0.13610000
opls_142-563    C    0.22414017    0.87019003    0.19549997    0.07680000
opls_145-564    C    0.11386033    0.76143998    0.64536042    -0.10020000
opls_145-565    C    0.16700022    0.76725993    0.71570997    -0.10140000
opls_145-566    C    0.49802021    0.98272006    0.05176002    -0.17910000
opls_145-567    C    0.47810991    0.93169006    0.00312992    -0.18110000
opls_750-568    N    0.12780010    0.42109994    0.80536028    -0.34710000
opls_750-569    N    0.24602016    0.56160010    0.22533987    -0.34020000
opls_750-570    N    0.08702018    0.54766001    0.56241996    -0.34700000
opls_750-571    N    0.81932026    0.55221000    0.82575047    -0.34710000
opls_750-572    N    0.66127006    0.55856992    0.16246010    -0.34150000
opls_750-573    N    0.77764027    0.41519003    0.57610030    -0.35930000
opls_750-574    N    0.13278003    0.62017002    0.67591037    -0.35950000
opls_750-575    N    0.77819018    0.61871003    0.70689015    -0.30570000
opls_750-576    N    0.12780000    0.57890006    0.30535999    -0.34680000
opls_750-577    N    0.24602026    0.43839990    0.72534017    -0.34020000
opls_750-578    N    0.08702027    0.45233999    0.06242026    -0.34710000
opls_750-579    N    0.81932017    0.44779000    0.32575017    -0.34710000
opls_750-580    N    0.66127016    0.44143008    0.66246039    -0.34150000
opls_750-581    N    0.77764018    0.58480997    0.07610000    -0.35930000
opls_750-582    N    0.13277993    0.37982998    0.17591008    -0.35950000
opls_750-583    N    0.77819008    0.38128997    0.20688986    -0.30570000
opls_750-584    N    0.62780010    0.92109994    0.80536028    -0.34710000
opls_750-585    N    0.74602016    0.06160010    0.22533987    -0.34030000
opls_750-586    N    0.58702018    0.04766001    0.56241996    -0.34710000
opls_750-587    N    0.31932026    0.05221000    0.82575047    -0.34710000
opls_750-588    N    0.16127006    0.05856992    0.16246010    -0.34130000
opls_750-589    N    0.27764027    0.91519003    0.57610030    -0.35930000
opls_750-590    N    0.63278003    0.12017002    0.67591037    -0.35950000
opls_750-591    N    0.27819018    0.11871003    0.70689015    -0.30560000
opls_750-592    N    0.62780000    0.07890006    0.30535999    -0.34700000
opls_750-593    N    0.74602026    0.93839990    0.72534017    -0.34020000
opls_750-594    N    0.58702027    0.95233999    0.06242026    -0.34710000
opls_750-595    N    0.31932017    0.94779000    0.32575017    -0.34710000
opls_750-596    N    0.16127016    0.94143008    0.66246039    -0.34150000
opls_750-597    N    0.27764018    0.08480997    0.07610000    -0.35930000
opls_750-598    N    0.63277993    0.87982998    0.17591008    -0.35950000
opls_750-599    N    0.27819008    0.88128997    0.20688986    -0.30570000
opls_144-600    H    0.81394004    0.59201997    0.88129998    0.10410000
opls_146-601    H    0.98730999    0.49605002    0.84992006    0.10210000
opls_146-602    H    0.19035005    0.60929991    0.51381005    0.11140000
opls_146-603    H    0.19773006    0.52761008    0.64349031    0.12040000
opls_146-604    H    0.31153994    0.52645999    0.69190015    0.11320000
opls_146-605    H    0.30539005    0.60907997    0.56654015    0.11290000
opls_144-606    H    0.09022984    0.58583007    0.49965002    0.11450000
opls_146-607    H    0.74481025    0.58690010    0.42433013    0.11600000
opls_144-608    H    0.68134997    0.58684995    0.01869996    0.09740000
opls_146-609    H    0.87756987    0.50367000    0.80961999    0.11450000
opls_146-610    H    0.91997025    0.49070998    0.53817022    0.11870000
opls_146-611    H    0.54165022    0.61570998    0.61406005    0.11230000
opls_146-612    H    0.48657003    0.52437998    0.53790009    0.11170000
opls_146-613    H    0.52905009    0.52972991    0.43698991    0.11460000
opls_146-614    H    0.58006010    0.57725003    0.42632017    0.11530000
opls_146-615    H    0.58600995    0.62021994    0.51466021    0.11370000
opls_146-616    H    0.88369990    0.58384991    0.46472994    0.11020000
opls_146-617    H    0.80180015    0.75276009    0.82526008    0.10700000
opls_146-618    H    0.59752009    0.61062002    0.82016031    0.11600000
opls_146-619    H    0.59655990    0.52806999    0.69705988    0.11320000
opls_146-620    H    0.71002024    0.53128008    0.74379018    0.12070000
opls_146-621    H    0.71243010    0.61278010    0.87178021    0.11010000
opls_146-622    H    0.77992008    0.87010008    0.90408035    0.10950000
opls_146-623    H    0.57901027    0.86708002    0.76719036    0.10880000
opls_146-624    H    0.58081033    0.81253992    0.78999032    0.11010000
opls_146-625    H    0.78115020    0.81590991    0.92616017    0.10790000
opls_144-626    H    0.24855997    0.51742005    0.26290008    0.10490000
opls_146-627    H    0.61889013    0.65660010    0.68667986    0.10780000
opls_146-628    H    0.61068006    0.69804008    0.76947012    0.11070000
opls_146-629    H    0.71387018    0.84753002    0.15410989    0.10790000
opls_146-630    H    0.31658009    0.62021005    0.86858024    0.11500000
opls_146-631    H    0.32344024    0.57785994    0.95912049    0.11490000
opls_146-632    H    0.37619013    0.53047002    0.95159016    0.11760000
opls_146-633    H    0.41994019    0.52470000    0.85205021    0.11260000
opls_146-634    H    0.36216991    0.61532991    0.77065987    0.11290000
opls_146-635    H    0.70240016    0.44761998    0.44671985    0.11320000
opls_146-636    H    0.72002995    0.49735011    0.41293015    0.11020000
opls_146-637    H    0.88097001    0.50549004    0.64017041    0.10770000
opls_146-638    H    0.86274005    0.45396010    0.67310995    0.10790000
opls_146-639    H    0.91162996    0.59542010    0.89275993    0.11730000
opls_146-640    H    0.28615025    0.50450996    0.40435018    0.11010000
opls_146-641    H    0.33519988    0.59115999    0.34166989    0.11420000
opls_146-642    H    0.39604007    0.60255004    0.48357001    0.11290000
opls_146-643    H    0.34875003    0.51557010    0.54574032    0.11100000
opls_146-644    H    0.81140006    0.69764989    0.90398002    0.10710000
opls_146-645    H    0.04439003    0.46068997    0.71066007    0.10790000
opls_146-646    H    0.02596032    0.51175010    0.74610022    0.10810000
opls_146-647    H    0.18506031    0.50191000    0.97449045    0.11420000
opls_146-648    H    0.20146995    0.45235011    0.93988028    0.11780000
opls_146-649    H    0.99643999    0.57633990    0.76347031    0.11420000
opls_146-650    H    0.19340016    0.55266001    0.87927017    0.10810000
opls_146-651    H    0.21290997    0.58502991    0.78523013    0.11320000
opls_146-652    H    0.01718014    0.60937008    0.67642035    0.11170000
opls_146-653    H    0.81304020    0.50467998    0.36590004    0.10200000
opls_146-654    H    0.82018036    0.65592992    0.82273038    0.11340000
opls_146-655    H    0.74788004    0.80823011    0.08817975    0.10890000
opls_146-656    H    0.57819986    0.74736001    0.01971991    0.10600000
opls_146-657    H    0.91062996    0.57062002    0.62486991    0.11840000
opls_146-658    H    0.88811027    0.60521994    0.71025042    0.10790000
opls_146-659    H    0.69341994    0.57933995    0.60044028    0.11840000
opls_146-660    H    0.71391993    0.54650002    0.50993031    0.10800000
opls_144-661    H    0.54353014    0.87111996    0.08874019    0.10390000
opls_146-662    H    0.16271996    0.59186997    0.96501996    0.11590000
opls_146-663    H    0.09201008    0.50970000    0.01990989    0.10810000
opls_146-664    H    0.15507989    0.51824000    0.16139027    0.11560000
opls_146-665    H    0.23219025    0.59811002    0.10539014    0.11240000
opls_146-666    H    0.62200036    0.50369991    0.97923045    0.11020000
opls_146-667    H    0.55842007    0.51577992    0.83882999    0.11020000
opls_146-668    H    0.50895994    0.60118990    0.90707016    0.11420000
opls_146-669    H    0.57048001    0.58858993    0.04814030    0.11290000
opls_146-670    H    0.52291009    0.83708991    0.97729978    0.10900000
opls_146-671    H    0.55761009    0.79753992    0.91228036    0.10740000
opls_146-672    H    0.82134003    0.63937998    0.08432019    0.11020000
opls_146-673    H    0.81041989    0.69250011    0.04418991    0.11340000
opls_146-674    H    0.60944002    0.68519003    0.95405990    0.10900000
opls_146-675    H    0.61974985    0.63229996    0.99422996    0.11100000
opls_144-676    H    0.65876003    0.51489003    0.12157999    0.12110000
opls_146-677    H    0.67586028    0.59422997    0.28424016    0.10970000
opls_144-678    H    0.72229019    0.91628997    0.87676006    0.11320000
opls_146-679    H    0.60223003    0.76761008    0.70692043    0.11290000
opls_146-680    H    0.75086997    0.51441011    0.22469988    0.11950000
opls_146-681    H    0.76727013    0.72699996    0.26927034    0.10880000
opls_146-682    H    0.77844027    0.73538996    0.14371027    0.10970000
opls_146-683    H    0.71421002    0.77051005    0.57393037    0.11170000
opls_146-684    H    0.61078995    0.77467998    0.57931986    0.10880000
opls_146-685    H    0.80948031    0.75957001    0.69699042    0.11320000
opls_146-686    H    0.02198003    0.58950007    0.92086032    0.11340000
opls_144-687    H    0.68168013    0.62283992    0.64577007    0.09740000
opls_146-688    H    0.56804986    0.73939999    0.14602981    0.11020000
opls_146-689    H    0.66231000    0.72905996    0.27085014    0.11420000
opls_146-690    H    0.02970993    0.49888994    0.57966004    0.11460000
opls_146-691    H    0.99346998    0.58987001    0.49113002    0.11550000
opls_144-692    H    0.81394013    0.40798003    0.38130028    0.10410000
opls_146-693    H    0.98731008    0.50394998    0.34992036    0.10200000
opls_146-694    H    0.19034995    0.39070009    0.01380976    0.11140000
opls_146-695    H    0.19772996    0.47238992    0.14349001    0.12040000
opls_146-696    H    0.31153984    0.47354001    0.19189985    0.11320000
opls_146-697    H    0.30538996    0.39092003    0.06653986    0.11290000
opls_144-698    H    0.09022974    0.41416993    0.99964972    0.11450000
opls_146-699    H    0.74481034    0.41309990    0.92433042    0.11590000
opls_144-700    H    0.68135006    0.41315005    0.51870025    0.09740000
opls_146-701    H    0.87756996    0.49633000    0.30962028    0.11450000
opls_146-702    H    0.91997015    0.50929002    0.03816992    0.11880000
opls_146-703    H    0.54165012    0.38429002    0.11405976    0.11230000
opls_146-704    H    0.48656993    0.47562002    0.03789980    0.11170000
opls_146-705    H    0.52905019    0.47027009    0.93699021    0.11460000
opls_146-706    H    0.58006019    0.42274997    0.92632046    0.11530000
opls_146-707    H    0.58600986    0.37978006    0.01465992    0.11360000
opls_146-708    H    0.88370000    0.41615009    0.96473024    0.11020000
opls_146-709    H    0.80180006    0.24723991    0.32525978    0.10700000
opls_146-710    H    0.59751999    0.38937998    0.32016001    0.11590000
opls_146-711    H    0.59655999    0.47193001    0.19706018    0.11320000
opls_146-712    H    0.71002014    0.46871992    0.24378988    0.12070000
opls_146-713    H    0.71243000    0.38721990    0.37177992    0.11010000
opls_146-714    H    0.77991998    0.12989992    0.40408006    0.10950000
opls_146-715    H    0.57901017    0.13291998    0.26719006    0.10880000
opls_146-716    H    0.58081023    0.18746008    0.28999002    0.11010000
opls_146-717    H    0.78115010    0.18409009    0.42615987    0.10790000
opls_144-718    H    0.24856007    0.48257995    0.76290038    0.10490000
opls_146-719    H    0.61889023    0.34339990    0.18668016    0.10780000
opls_146-720    H    0.61067996    0.30195992    0.26946982    0.11070000
opls_146-721    H    0.71387028    0.15246998    0.65411018    0.10780000
opls_146-722    H    0.31657999    0.37978995    0.36857994    0.11500000
opls_146-723    H    0.32344015    0.42214006    0.45912019    0.11490000
opls_146-724    H    0.37619003    0.46952998    0.45158986    0.11750000
opls_146-725    H    0.41994010    0.47530000    0.35204991    0.11260000
opls_146-726    H    0.36217001    0.38467009    0.27066016    0.11290000
opls_146-727    H    0.70240026    0.55238002    0.94672015    0.11320000
opls_146-728    H    0.72003005    0.50264989    0.91293045    0.11020000
opls_146-729    H    0.88096991    0.49450996    0.14017012    0.10770000
opls_146-730    H    0.86274014    0.54603990    0.17311025    0.10790000
opls_146-731    H    0.91163006    0.40457990    0.39276022    0.11730000
opls_146-732    H    0.28615035    0.49549004    0.90435048    0.11010000
opls_146-733    H    0.33519998    0.40884001    0.84167018    0.11420000
opls_146-734    H    0.39604017    0.39744996    0.98357030    0.11290000
opls_146-735    H    0.34874994    0.48442990    0.04574003    0.11100000
opls_146-736    H    0.81140015    0.30235011    0.40398032    0.10700000
opls_146-737    H    0.04438994    0.53931003    0.21065977    0.10790000
opls_146-738    H    0.02595980    0.48824990    0.24609992    0.10820000
opls_146-739    H    0.18506022    0.49809000    0.47449016    0.11420000
opls_146-740    H    0.20146986    0.54764989    0.43987998    0.11780000
opls_146-741    H    0.99643989    0.42366010    0.26347002    0.11420000
opls_146-742    H    0.19340006    0.44733999    0.37926987    0.10820000
opls_146-743    H    0.21290988    0.41497009    0.28522984    0.11320000
opls_146-744    H    0.01718004    0.39062992    0.17642005    0.11180000
opls_146-745    H    0.81304030    0.49532002    0.86590034    0.10200000
opls_146-746    H    0.82018026    0.34407008    0.32273008    0.11340000
opls_146-747    H    0.74788013    0.19176989    0.58818005    0.10880000
opls_146-748    H    0.57819995    0.25263999    0.51972021    0.10600000
opls_146-749    H    0.91063005    0.42937998    0.12487021    0.11840000
opls_146-750    H    0.88811017    0.39478006    0.21025013    0.10790000
opls_146-751    H    0.69341985    0.42066005    0.10043998    0.11840000
opls_146-752    H    0.71391983    0.45349998    0.00993001    0.10790000
opls_144-753    H    0.54353004    0.12888004    0.58873989    0.12110000
opls_146-754    H    0.16272006    0.40813003    0.46502025    0.11590000
opls_146-755    H    0.09201018    0.49030000    0.51991019    0.10810000
opls_146-756    H    0.15508022    0.48176000    0.66138998    0.11570000
opls_146-757    H    0.23219015    0.40188998    0.60538985    0.11240000
opls_146-758    H    0.62200026    0.49630009    0.47923015    0.11020000
opls_146-759    H    0.55842017    0.48422008    0.33883028    0.11020000
opls_146-760    H    0.50895984    0.39881010    0.40706986    0.11420000
opls_146-761    H    0.57047991    0.41141007    0.54814001    0.11290000
opls_146-762    H    0.52291019    0.16291009    0.47730008    0.10900000
opls_146-763    H    0.55760999    0.20246008    0.41228006    0.10750000
opls_146-764    H    0.82133993    0.36062002    0.58431989    0.11020000
opls_146-765    H    0.81041999    0.30749989    0.54419021    0.11340000
opls_146-766    H    0.60944012    0.31480997    0.45406020    0.10900000
opls_146-767    H    0.61974995    0.36770004    0.49423025    0.11100000
opls_144-768    H    0.65876012    0.48510997    0.62158029    0.12110000
opls_146-769    H    0.67586018    0.40577003    0.78423986    0.10970000
opls_144-770    H    0.72229029    0.08371003    0.37676036    0.11310000
opls_146-771    H    0.60222993    0.23238992    0.20692014    0.11290000
opls_146-772    H    0.75087007    0.48558989    0.72470017    0.11950000
opls_146-773    H    0.76727003    0.27300004    0.76927004    0.10880000
opls_146-774    H    0.77844017    0.26461004    0.64370997    0.10970000
opls_146-775    H    0.71420992    0.22948995    0.07393007    0.11170000
opls_146-776    H    0.61079005    0.22532002    0.07932016    0.10880000
opls_146-777    H    0.80948021    0.24042999    0.19699013    0.11320000
opls_146-778    H    0.02197994    0.41049993    0.42086003    0.11340000
opls_144-779    H    0.68168003    0.37716008    0.14576977    0.09740000
opls_146-780    H    0.56804996    0.26060001    0.64603010    0.11020000
opls_146-781    H    0.66231010    0.27094004    0.77085044    0.11420000
opls_146-782    H    0.02970983    0.50111006    0.07965975    0.11460000
opls_146-783    H    0.99346989    0.41012999    0.99112972    0.11550000
opls_144-784    H    0.31394004    0.09201997    0.88129998    0.10410000
opls_146-785    H    0.48730999    0.99605002    0.84992006    0.10200000
opls_146-786    H    0.69035005    0.10929991    0.51381005    0.11150000
opls_146-787    H    0.69773006    0.02761008    0.64349031    0.12040000
opls_146-788    H    0.81153994    0.02645999    0.69190015    0.11320000
opls_146-789    H    0.80539005    0.10907997    0.56654015    0.11290000
opls_144-790    H    0.59022984    0.08583007    0.49965002    0.11450000
opls_146-791    H    0.24481025    0.08690010    0.42433013    0.11590000
opls_144-792    H    0.18134997    0.08684995    0.01869996    0.09740000
opls_146-793    H    0.37756987    0.00367000    0.80961999    0.11450000
opls_146-794    H    0.41997025    0.99070998    0.53817022    0.11870000
opls_146-795    H    0.04165022    0.11570998    0.61406005    0.11230000
opls_146-796    H    0.98657003    0.02437998    0.53790009    0.11170000
opls_146-797    H    0.02905009    0.02972991    0.43698991    0.11470000
opls_146-798    H    0.08006010    0.07725003    0.42632017    0.11530000
opls_146-799    H    0.08600995    0.12021994    0.51466021    0.11360000
opls_146-800    H    0.38369990    0.08384991    0.46472994    0.11020000
opls_146-801    H    0.30180015    0.25276009    0.82526008    0.10700000
opls_146-802    H    0.09752009    0.11062002    0.82016031    0.11590000
opls_146-803    H    0.09655990    0.02806999    0.69705988    0.11330000
opls_146-804    H    0.21002024    0.03128008    0.74379018    0.12070000
opls_146-805    H    0.21243010    0.11278010    0.87178021    0.11010000
opls_146-806    H    0.27992008    0.37010008    0.90408035    0.10950000
opls_146-807    H    0.07901027    0.36708002    0.76719036    0.10880000
opls_146-808    H    0.08081033    0.31253992    0.78999032    0.11010000
opls_146-809    H    0.28115020    0.31590991    0.92616017    0.10790000
opls_144-810    H    0.74855997    0.01742005    0.26290008    0.10490000
opls_146-811    H    0.11889013    0.15660010    0.68667986    0.10780000
opls_146-812    H    0.11068006    0.19804008    0.76947012    0.11070000
opls_146-813    H    0.21387018    0.34753002    0.15410989    0.10780000
opls_146-814    H    0.81658009    0.12021005    0.86858024    0.11500000
opls_146-815    H    0.82344024    0.07785994    0.95912049    0.11490000
opls_146-816    H    0.87619013    0.03047002    0.95159016    0.11750000
opls_146-817    H    0.91994019    0.02470000    0.85205021    0.11260000
opls_146-818    H    0.86216991    0.11532991    0.77065987    0.11290000
opls_146-819    H    0.20240016    0.94761998    0.44671985    0.11320000
opls_146-820    H    0.22002995    0.99735011    0.41293015    0.11020000
opls_146-821    H    0.38097001    0.00549004    0.64017041    0.10770000
opls_146-822    H    0.36274005    0.95396010    0.67310995    0.10790000
opls_146-823    H    0.41162996    0.09542010    0.89275993    0.11730000
opls_146-824    H    0.78615025    0.00450996    0.40435018    0.11010000
opls_146-825    H    0.83519988    0.09115999    0.34166989    0.11420000
opls_146-826    H    0.89604007    0.10255004    0.48357001    0.11290000
opls_146-827    H    0.84875003    0.01557010    0.54574032    0.11100000
opls_146-828    H    0.31140006    0.19764989    0.90398002    0.10700000
opls_146-829    H    0.54439003    0.96068997    0.71066007    0.10790000
opls_146-830    H    0.52596032    0.01175010    0.74610022    0.10810000
opls_146-831    H    0.68506031    0.00191000    0.97449045    0.11420000
opls_146-832    H    0.70146995    0.95235011    0.93988028    0.11780000
opls_146-833    H    0.49643999    0.07633990    0.76347031    0.11420000
opls_146-834    H    0.69340016    0.05266001    0.87927017    0.10810000
opls_146-835    H    0.71290997    0.08502991    0.78523013    0.11330000
opls_146-836    H    0.51718014    0.10937008    0.67642035    0.11170000
opls_146-837    H    0.31304020    0.00467998    0.36590004    0.10200000
opls_146-838    H    0.32018036    0.15592992    0.82273038    0.11340000
opls_146-839    H    0.24788004    0.30823011    0.08817975    0.10880000
opls_146-840    H    0.07819986    0.24736001    0.01971991    0.10600000
opls_146-841    H    0.41062996    0.07062002    0.62486991    0.11840000
opls_146-842    H    0.38811027    0.10521994    0.71025042    0.10790000
opls_146-843    H    0.19341994    0.07933995    0.60044028    0.11840000
opls_146-844    H    0.21391993    0.04650002    0.50993031    0.10790000
opls_144-845    H    0.04353014    0.37111996    0.08874019    0.10390000
opls_146-846    H    0.66271996    0.09186997    0.96501996    0.11590000
opls_146-847    H    0.59201008    0.00970000    0.01990989    0.10810000
opls_146-848    H    0.65507989    0.01824000    0.16139027    0.11560000
opls_146-849    H    0.73219025    0.09811002    0.10539014    0.11240000
opls_146-850    H    0.12200036    0.00369991    0.97923045    0.11020000
opls_146-851    H    0.05842007    0.01577992    0.83882999    0.11020000
opls_146-852    H    0.00895994    0.10118990    0.90707016    0.11420000
opls_146-853    H    0.07048001    0.08858993    0.04814030    0.11290000
opls_146-854    H    0.02291009    0.33708991    0.97729978    0.10900000
opls_146-855    H    0.05761009    0.29753992    0.91228036    0.10740000
opls_146-856    H    0.32134003    0.13937998    0.08432019    0.11020000
opls_146-857    H    0.31041989    0.19249989    0.04418991    0.11340000
opls_146-858    H    0.10944002    0.18519003    0.95405990    0.10910000
opls_146-859    H    0.11974985    0.13229996    0.99422996    0.11100000
opls_144-860    H    0.15876003    0.01489003    0.12157999    0.12110000
opls_146-861    H    0.17586028    0.09422997    0.28424016    0.10970000
opls_144-862    H    0.22229019    0.41628997    0.87676006    0.11310000
opls_146-863    H    0.10223003    0.26761008    0.70692043    0.11290000
opls_146-864    H    0.25086997    0.01441011    0.22469988    0.11950000
opls_146-865    H    0.26727013    0.22699996    0.26927034    0.10880000
opls_146-866    H    0.27844027    0.23538996    0.14371027    0.10970000
opls_146-867    H    0.21421002    0.27051005    0.57393037    0.11170000
opls_146-868    H    0.11078995    0.27467998    0.57931986    0.10880000
opls_146-869    H    0.30948031    0.25957001    0.69699042    0.11320000
opls_146-870    H    0.52198003    0.08950007    0.92086032    0.11340000
opls_144-871    H    0.18168013    0.12283992    0.64577007    0.09740000
opls_146-872    H    0.06804986    0.23939999    0.14602981    0.11020000
opls_146-873    H    0.16231000    0.22905996    0.27085014    0.11420000
opls_146-874    H    0.52970993    0.99888994    0.57966004    0.11460000
opls_146-875    H    0.49346998    0.08987001    0.49113002    0.11550000
opls_144-876    H    0.31394013    0.90798003    0.38130028    0.10410000
opls_146-877    H    0.48731008    0.00394998    0.34992036    0.10200000
opls_146-878    H    0.69034995    0.89070009    0.01380976    0.11140000
opls_146-879    H    0.69772996    0.97238992    0.14349001    0.12040000
opls_146-880    H    0.81153984    0.97354001    0.19189985    0.11320000
opls_146-881    H    0.80538996    0.89092003    0.06653986    0.11290000
opls_144-882    H    0.59022974    0.91416993    0.99964972    0.11450000
opls_146-883    H    0.24481034    0.91309990    0.92433042    0.11590000
opls_144-884    H    0.18135006    0.91315005    0.51870025    0.09740000
opls_146-885    H    0.37756996    0.99633000    0.30962028    0.11450000
opls_146-886    H    0.41997015    0.00929002    0.03816992    0.11870000
opls_146-887    H    0.04165012    0.88429002    0.11405976    0.11230000
opls_146-888    H    0.98656993    0.97562002    0.03789980    0.11170000
opls_146-889    H    0.02905019    0.97027009    0.93699021    0.11460000
opls_146-890    H    0.08006019    0.92274997    0.92632046    0.11530000
opls_146-891    H    0.08600986    0.87978006    0.01465992    0.11360000
opls_146-892    H    0.38370000    0.91615009    0.96473024    0.11030000
opls_146-893    H    0.30180006    0.74723991    0.32525978    0.10700000
opls_146-894    H    0.09751999    0.88937998    0.32016001    0.11590000
opls_146-895    H    0.09655999    0.97193001    0.19706018    0.11320000
opls_146-896    H    0.21002014    0.96871992    0.24378988    0.12070000
opls_146-897    H    0.21243000    0.88721990    0.37177992    0.11010000
opls_146-898    H    0.27991998    0.62989992    0.40408006    0.10950000
opls_146-899    H    0.07901017    0.63291998    0.26719006    0.10880000
opls_146-900    H    0.08081023    0.68746008    0.28999002    0.11010000
opls_146-901    H    0.28115010    0.68409009    0.42615987    0.10790000
opls_144-902    H    0.74856007    0.98257995    0.76290038    0.10490000
opls_146-903    H    0.11889023    0.84339990    0.18668016    0.10780000
opls_146-904    H    0.11067996    0.80195992    0.26946982    0.11070000
opls_146-905    H    0.21387028    0.65246998    0.65411018    0.10780000
opls_146-906    H    0.81657999    0.87978995    0.36857994    0.11500000
opls_146-907    H    0.82344015    0.92214006    0.45912019    0.11490000
opls_146-908    H    0.87619003    0.96952998    0.45158986    0.11750000
opls_146-909    H    0.91994010    0.97530000    0.35204991    0.11260000
opls_146-910    H    0.86217001    0.88467009    0.27066016    0.11300000
opls_146-911    H    0.20240026    0.05238002    0.94672015    0.11330000
opls_146-912    H    0.22003005    0.00264989    0.91293045    0.11020000
opls_146-913    H    0.38096991    0.99450996    0.14017012    0.10770000
opls_146-914    H    0.36274014    0.04603990    0.17311025    0.10790000
opls_146-915    H    0.41163006    0.90457990    0.39276022    0.11730000
opls_146-916    H    0.78615035    0.99549004    0.90435048    0.11010000
opls_146-917    H    0.83519998    0.90884001    0.84167018    0.11420000
opls_146-918    H    0.89604017    0.89744996    0.98357030    0.11290000
opls_146-919    H    0.84874994    0.98442990    0.04574003    0.11100000
opls_146-920    H    0.31140015    0.80235011    0.40398032    0.10700000
opls_146-921    H    0.54438994    0.03931003    0.21065977    0.10790000
opls_146-922    H    0.52595980    0.98824990    0.24609992    0.10810000
opls_146-923    H    0.68506022    0.99809000    0.47449016    0.11420000
opls_146-924    H    0.70146986    0.04764989    0.43987998    0.11780000
opls_146-925    H    0.49643989    0.92366010    0.26347002    0.11420000
opls_146-926    H    0.69340006    0.94733999    0.37926987    0.10810000
opls_146-927    H    0.71290988    0.91497009    0.28522984    0.11320000
opls_146-928    H    0.51718004    0.89062992    0.17642005    0.11170000
opls_146-929    H    0.31304030    0.99532002    0.86590034    0.10200000
opls_146-930    H    0.32018026    0.84407008    0.32273008    0.11340000
opls_146-931    H    0.24788013    0.69176989    0.58818005    0.10890000
opls_146-932    H    0.07819995    0.75263999    0.51972021    0.10600000
opls_146-933    H    0.41063005    0.92937998    0.12487021    0.11840000
opls_146-934    H    0.38811017    0.89478006    0.21025013    0.10790000
opls_146-935    H    0.19341985    0.92066005    0.10043998    0.11840000
opls_146-936    H    0.21391983    0.95349998    0.00993001    0.10790000
opls_144-937    H    0.04353004    0.62888004    0.58873989    0.12110000
opls_146-938    H    0.66272006    0.90813003    0.46502025    0.11590000
opls_146-939    H    0.59201018    0.99030000    0.51991019    0.10810000
opls_146-940    H    0.65508022    0.98176000    0.66138998    0.11560000
opls_146-941    H    0.73219015    0.90188998    0.60538985    0.11240000
opls_146-942    H    0.12200026    0.99630009    0.47923015    0.11020000
opls_146-943    H    0.05842017    0.98422008    0.33883028    0.11020000
opls_146-944    H    0.00895984    0.89881010    0.40706986    0.11440000
opls_146-945    H    0.07047991    0.91141007    0.54814001    0.11290000
opls_146-946    H    0.02291019    0.66291009    0.47730008    0.10910000
opls_146-947    H    0.05760999    0.70246008    0.41228006    0.10740000
opls_146-948    H    0.32133993    0.86062002    0.58431989    0.11020000
opls_146-949    H    0.31041999    0.80750011    0.54419021    0.11340000
opls_146-950    H    0.10944012    0.81480997    0.45406020    0.10900000
opls_146-951    H    0.11974995    0.86770004    0.49423025    0.11100000
opls_144-952    H    0.15876012    0.98510997    0.62158029    0.12110000
opls_146-953    H    0.17586018    0.90577003    0.78423986    0.10970000
opls_144-954    H    0.22229029    0.58371003    0.37676036    0.11310000
opls_146-955    H    0.10222993    0.73238992    0.20692014    0.11290000
opls_146-956    H    0.25087007    0.98558989    0.72470017    0.11960000
opls_146-957    H    0.26727003    0.77300004    0.76927004    0.10880000
opls_146-958    H    0.27844017    0.76461004    0.64370997    0.10970000
opls_146-959    H    0.21420992    0.72948995    0.07393007    0.11170000
opls_146-960    H    0.11079005    0.72532002    0.07932016    0.10880000
opls_146-961    H    0.30948021    0.74042999    0.19699013    0.11320000
opls_146-962    H    0.52197994    0.91049993    0.42086003    0.11340000
opls_144-963    H    0.18168003    0.87716008    0.14576977    0.09740000
opls_146-964    H    0.06804996    0.76060001    0.64603010    0.11020000
opls_146-965    H    0.16231010    0.77094004    0.77085044    0.11420000
opls_146-966    H    0.52970983    0.00111006    0.07965975    0.11460000
opls_146-967    H    0.49346989    0.91012999    0.99112972    0.11550000
