#======================================================================
# Crystal Data Generated By AuToFF
#----------------------------------------------------------------------

data_AuToFF_phase_1

_cell_length_a                         99.4913
_cell_length_b                         99.6713
_cell_length_c                         7.0696
_cell_angle_alpha                      90.00
_cell_angle_beta                       90.00
_cell_angle_gamma                      120.00
_symmetry_space_group_name_H-M_alt     'P 1'
_symmetry_space_group_IT_number        1

loop_
_space_group_symop_operation_xyz
   'x, y, z'

loop_
   _atom_site_label
   _atom_site_type_symbol
   _atom_site_fract_x
   _atom_site_fract_y
   _atom_site_fract_z
   _atom_site_charge
opls_261-0    C    0.35003998    0.67604000    0.20259986    -0.12350000
opls_700-1    C    0.31766995    0.65927998    0.16370940    -0.00230000
opls_700-2    C    0.35162997    0.65175998    0.17239023    0.07210000
opls_145-3    C    0.34454999    0.63605003    0.11966024    -0.12620000
opls_145-4    C    0.35299003    0.62829995    0.11868988    -0.12210000
opls_700-5    C    0.36870996    0.63597994    0.17172966    0.06640000
opls_145-6    C    0.37582998    0.65167993    0.22338039    -0.12210000
opls_145-7    C    0.36743998    0.65947994    0.22300979    -0.12710000
opls_700-8    C    0.37758998    0.62762999    0.17578930    0.07050000
opls_145-9    C    0.37038997    0.61199001    0.23115028    -0.12220000
opls_145-10    C    0.37879999    0.60422997    0.23776027    -0.16620000
opls_145-11    C    0.39459005    0.61189003    0.19195994    0.19500000
opls_145-12    C    0.40182001    0.62747000    0.13347997    -0.16470000
opls_145-13    C    0.39338997    0.63521996    0.12567048    -0.12660000
opls_145-14    C    0.00860999    0.51598000    0.06669967    -0.11360000
opls_166-15    C    0.00660003    0.49075000    0.03277979    0.07200000
opls_700-16    C    0.01575996    0.50704002    0.04690930    0.02320000
opls_145-17    C    0.16809993    0.58652993    0.03376994    -0.12710000
opls_145-18    C    0.15194995    0.57966994    0.02696051    -0.11490000
opls_700-19    C    0.14267005    0.56357003    0.01083937    0.13450000
opls_145-20    C    0.14959001    0.55435004    0.00075959    -0.11430000
opls_145-21    C    0.16574000    0.56118999    0.00761005    -0.12220000
opls_700-22    C    0.17514002    0.57732002    0.02465062    0.07000000
opls_142-23    C    0.19214996    0.58422994    0.03458046    0.07190000
opls_261-24    C    0.12603997    0.55647996    0.00751952    -0.11370000
opls_261-25    C    0.11209005    0.55045003    0.00634972    -0.11370000
opls_700-26    C    0.09545002    0.54313000    0.00689997    0.13170000
opls_145-27    C    0.08824001    0.55197000    0.03528064    -0.11600000
opls_145-28    C    0.07204998    0.54476998    0.03976038    -0.11590000
opls_700-29    C    0.06301000    0.52869996    0.01596979    0.12870000
opls_145-30    C    0.07020997    0.51987004    0.98655935    -0.11430000
opls_145-31    C    0.08639995    0.52706994    0.98202020    -0.11590000
opls_261-32    C    0.04636996    0.52120997    0.02505941    -0.08980000
opls_261-33    C    0.03242997    0.51479995    0.03428058    -0.11370000
opls_261-34    C    0.67425001    0.32465997    0.17685018    -0.12350000
opls_700-35    C    0.65691999    0.33978997    0.19106031    -0.00100000
opls_700-36    C    0.64774006    0.34786003    0.19988967    0.07210000
opls_145-37    C    0.65455994    0.36366996    0.15316001    -0.12620000
opls_145-38    C    0.64595997    0.37124000    0.16163008    -0.12210000
opls_700-39    C    0.63032000    0.36325996    0.21807033    0.07010000
opls_145-40    C    0.62350004    0.34749000    0.26522010    -0.12420000
opls_145-41    C    0.63205999    0.33987999    0.25560994    -0.12670000
opls_700-42    C    0.62118998    0.37136002    0.22887009    0.06990000
opls_145-43    C    0.62824997    0.38693999    0.28615056    -0.12440000
opls_145-44    C    0.61963005    0.39448003    0.29764060    -0.16040000
opls_145-45    C    0.59668993    0.37109994    0.19503932    -0.16570000
opls_145-46    C    0.60532994    0.36357994    0.18199049    -0.12520000
opls_145-47    C    0.49010999    0.48358996    0.44690930    -0.11340000
opls_700-48    C    0.50619001    0.49013993    0.43016012    0.04170000
opls_166-49    C    0.51569995    0.50629997    0.41455952    0.10200000
opls_145-50    C    0.58243004    0.41490002    0.29924041    -0.12840000
opls_145-51    C    0.57540002    0.42397994    0.31479009    -0.11600000
opls_700-52    C    0.55924998    0.41694004    0.32959998    0.13290000
opls_145-53    C    0.55014002    0.40077004    0.32877956    -0.11590000
opls_145-54    C    0.55714999    0.39166995    0.31325959    -0.12220000
opls_700-55    C    0.57334005    0.39863004    0.29835068    0.06990000
opls_142-56    C    0.58046996    0.38877994    0.28218994    0.07260000
opls_261-57    C    0.55205001    0.42630994    0.34527979    -0.11200000
opls_261-58    C    0.54607997    0.43422000    0.35816029    -0.11370000
opls_700-59    C    0.53905001    0.44375997    0.37322055    0.12930000
opls_145-60    C    0.54832003    0.45969004    0.40560994    -0.11540000
opls_145-61    C    0.54152993    0.46899993    0.41931934    -0.11590000
opls_700-62    C    0.52543002    0.46240003    0.40071998    0.12870000
opls_145-63    C    0.51614999    0.44645999    0.36837020    -0.11720000
opls_145-64    C    0.52294998    0.43714999    0.35473011    -0.11590000
opls_261-65    C    0.51850003    0.47203001    0.41306014    -0.11190000
opls_261-66    C    0.51281996    0.48021997    0.42201963    -0.11370000
opls_145-67    C    0.60376998    0.38662001    0.25528036    0.19500000
opls_181-68    C    0.45876993    0.98229996    0.72690958    -0.19480000
opls_181-69    C    0.54014001    0.51630995    0.56138961    -0.19480000
opls_261-70    C    0.32551002    0.67537004    0.19042944    -0.12350000
opls_700-71    C    0.34257997    0.65996002    0.17674975    -0.00090000
opls_700-72    C    0.34983000    0.70098999    0.23740947    0.07010000
opls_145-73    C    0.36585001    0.71011000    0.20266069    -0.12320000
opls_145-74    C    0.37346995    0.72616994    0.22561955    -0.12210000
opls_700-75    C    0.36533000    0.73355995    0.28574035    0.07000000
opls_145-76    C    0.34933998    0.72442998    0.32237043    -0.12550000
opls_145-77    C    0.34168000    0.70838000    0.29750057    -0.12520000
opls_700-78    C    0.37346004    0.75069001    0.31050979    0.07190000
opls_145-79    C    0.38896992    0.75888993    0.37251047    -0.12440000
opls_145-80    C    0.39657001    0.77494999    0.39543963    -0.16430000
opls_145-81    C    0.38885002    0.78316995    0.36010948    0.19500000
opls_145-82    C    0.37340002    0.77510001    0.29565039    -0.16570000
opls_145-83    C    0.36582002    0.75903996    0.27097007    -0.12800000
opls_145-84    C    0.48342005    0.49298002    0.44249038    -0.11540000
opls_166-85    C    0.50903997    0.51583994    0.41210960    0.07240000
opls_700-86    C    0.49272999    0.50903996    0.42207056    0.03260000
opls_145-87    C    0.41509007    0.58285004    0.23092961    -0.12840000
opls_145-88    C    0.42183000    0.57351003    0.24784005    -0.11490000
opls_700-89    C    0.43797999    0.58026993    0.25632992    0.12640000
opls_145-90    C    0.44737999    0.59638003    0.24710026    -0.11430000
opls_145-91    C    0.44066994    0.60573997    0.23016012    -0.12060000
opls_700-92    C    0.42446999    0.59906997    0.22236053    0.07080000
opls_142-93    C    0.41764995    0.60919997    0.20706971    0.07130000
opls_261-94    C    0.44491997    0.57068999    0.27601986    -0.11370000
opls_261-95    C    0.45081994    0.56273996    0.29326977    -0.11200000
opls_700-96    C    0.45797000    0.55336994    0.31468966    0.12850000
opls_145-97    C    0.44893997    0.53718998    0.30789012    -0.11610000
opls_145-98    C    0.45594001    0.52812001    0.32969051    -0.11590000
opls_700-99    C    0.47198003    0.53520997    0.35858040    0.12220000
opls_145-100    C    0.48100999    0.55137997    0.36508006    -0.11540000
opls_145-101    C    0.47402001    0.56044993    0.34320046    -0.11590000
opls_261-102    C    0.47919998    0.52591004    0.38156048    -0.08980000
opls_261-103    C    0.48534005    0.51821002    0.40054034    -0.11370000
opls_261-104    C    0.67306001    0.34820005    0.16636019    -0.12350000
opls_700-105    C    0.65813001    0.31588994    0.20143997    -0.00070000
opls_700-106    C    0.65024004    0.29872003    0.21980027    0.07220000
opls_145-107    C    0.63464993    0.29011996    0.27834955    -0.12620000
opls_145-108    C    0.62726997    0.27400997    0.29515956    -0.12220000
opls_700-109    C    0.63520007    0.26603005    0.25239052    0.07010000
opls_145-110    C    0.65076001    0.27460000    0.19366018    -0.12060000
opls_145-111    C    0.65819006    0.29070003    0.17821942    -0.12550000
opls_700-112    C    0.62733004    0.24886003    0.26964043    0.07010000
opls_145-113    C    0.61148006    0.23958003    0.22632964    -0.12320000
opls_145-114    C    0.60409002    0.22348000    0.24399966    -0.16580000
opls_145-115    C    0.62821005    0.22548005    0.34673956    -0.16470000
opls_145-116    C    0.63559001    0.24159004    0.33031006    -0.12550000
opls_145-117    C    0.51566002    0.00701998    0.60908962    -0.11770000
opls_700-118    C    0.50874999    0.01620000    0.58816057    0.02910000
opls_166-119    C    0.49242005    0.00914005    0.57799027    0.07240000
opls_145-120    C    0.58408999    0.16686995    0.36857955    -0.12550000
opls_145-121    C    0.57498997    0.15084001    0.39140970    -0.11570000
opls_700-122    C    0.58200997    0.14172000    0.40487015    0.13290000
opls_145-123    C    0.59818000    0.14869005    0.39508034    -0.11600000
opls_145-124    C    0.60730993    0.16472995    0.37228980    -0.12340000
opls_700-125    C    0.60034999    0.17396002    0.35887037    0.07000000
opls_142-126    C    0.61023005    0.19088004    0.33614066    0.07230000
opls_261-127    C    0.57261998    0.12523999    0.42929020    -0.11200000
opls_261-128    C    0.56467995    0.11143995    0.44989957    -0.11370000
opls_700-129    C    0.55510997    0.09497001    0.47457989    0.12870000
opls_145-130    C    0.53892002    0.08810006    0.46977057    -0.11490000
opls_145-131    C    0.52959003    0.07210001    0.49353995    -0.11540000
opls_700-132    C    0.53639999    0.06291003    0.52231951    0.12220000
opls_145-133    C    0.55258997    0.06977002    0.52705952    -0.11800000
opls_145-134    C    0.56193004    0.08578999    0.50333965    -0.11610000
opls_261-135    C    0.52677003    0.04646002    0.54649061    -0.09860000
opls_261-136    C    0.51858997    0.03268002    0.56609992    -0.11370000
opls_145-137    C    0.61235992    0.21625995    0.30223068    0.19490000
opls_181-138    C    0.02371000    0.48182995    0.14222021    -0.19480000
opls_181-139    C    0.48748999    0.02919001    0.68540936    -0.19480000
opls_261-140    C    0.32638993    0.65176995    0.15744031    -0.12350000
opls_700-141    C    0.34167998    0.68391995    0.20990014    -0.00210000
opls_700-142    C    0.30047002    0.65034996    0.14377051    0.07190000
opls_145-143    C    0.29143996    0.65723996    0.18509958    -0.12620000
opls_145-144    C    0.27528999    0.64879999    0.16892045    -0.12340000
opls_700-145    C    0.26770006    0.63325003    0.10968937    0.07030000
opls_145-146    C    0.27670000    0.62637996    0.06695994    -0.12060000
opls_145-147    C    0.29283999    0.63477996    0.08446022    -0.12710000
opls_700-148    C    0.25049001    0.62425004    0.09270963    0.07010000
opls_145-149    C    0.24214000    0.63147994    0.03409952    -0.12670000
opls_145-150    C    0.22597000    0.62304994    0.02055986    -0.16810000
opls_145-151    C    0.21779005    0.60721000    0.06192005    0.19520000
opls_145-152    C    0.22603998    0.59991997    0.12185979    -0.16470000
opls_145-153    C    0.24220997    0.60837002    0.13712940    -0.12800000
opls_145-154    C    0.50653994    0.99092992    0.61436008    -0.11370000
opls_166-155    C    0.48330991    0.99290993    0.58101024    0.10150000
opls_700-156    C    0.49041995    0.98380996    0.59769011    0.04100000
opls_145-157    C    0.41730001    0.83246994    0.43491994    -0.12840000
opls_145-158    C    0.42643998    0.84849999    0.45874024    -0.11490000
opls_700-159    C    0.41942002    0.85755002    0.48113047    0.12110000
opls_145-160    C    0.40322995    0.85052992    0.47987015    -0.11540000
opls_145-161    C    0.39406999    0.83450995    0.45605975    -0.12020000
opls_700-162    C    0.40101000    0.82534001    0.43309947    0.07080000
opls_142-163    C    0.39110000    0.80845996    0.40699049    0.07230000
opls_261-164    C    0.42881999    0.87404997    0.50373006    -0.11370000
opls_261-165    C    0.43666994    0.88789993    0.52154012    -0.11370000
opls_700-166    C    0.44597997    0.90443000    0.54120035    0.12850000
opls_145-167    C    0.46204005    0.91138001    0.56818066    -0.11600000
opls_145-168    C    0.47113001    0.92748999    0.58351958    -0.11590000
opls_700-169    C    0.46418000    0.93668994    0.57207056    0.13560000
opls_145-170    C    0.44810997    0.92973993    0.54611011    -0.11610000
opls_145-171    C    0.43902999    0.91364002    0.53069056    -0.11540000
opls_261-172    C    0.47351997    0.95326994    0.58362991    -0.08980000
opls_261-173    C    0.48126998    0.96718003    0.59123996    -0.11370000
opls_261-174    C    0.64964997    0.32364002    0.20834984    -0.12350000
opls_700-175    C    0.68188997    0.34081004    0.15894959    -0.00200000
opls_700-176    C    0.69903005    0.34994001    0.13520991    0.07040000
opls_145-177    C    0.70829997    0.34327002    0.17427011    -0.12620000
opls_145-178    C    0.72443006    0.35195002    0.15703010    -0.12060000
opls_700-179    C    0.73174999    0.36750995    0.09859964    0.07030000
opls_145-180    C    0.72249996    0.37411994    0.05677973    -0.12220000
opls_145-181    C    0.70637996    0.36548998    0.07572989    -0.12670000
opls_700-182    C    0.74895994    0.37681996    0.08294953    0.07110000
opls_145-183    C    0.75762005    0.36992000    0.02469022    -0.12210000
opls_145-184    C    0.77377998    0.37864994    0.01276027    -0.16580000
opls_145-185    C    0.77306998    0.40143004    0.11561050    -0.16360000
opls_145-186    C    0.75691000    0.39267994    0.12902003    -0.12620000
opls_145-187    C    0.99249003    0.50896002    0.06785957    -0.11600000
opls_700-188    C    0.98327995    0.49289996    0.04903955    0.03400000
opls_166-189    C    0.99033000    0.48367001    0.03385057    0.07240000
opls_145-190    C    0.83139000    0.41606003    0.03195938    -0.12800000
opls_145-191    C    0.84756000    0.42318996    0.02747963    -0.11430000
opls_700-192    C    0.85661996    0.43932995    0.01584955    0.12640000
opls_145-193    C    0.84944999    0.44832994    0.00781940    -0.11600000
opls_145-194    C    0.83326997    0.44121994    0.01229065    -0.12330000
opls_700-195    C    0.82408998    0.42503998    0.02490947    0.07150000
opls_142-196    C    0.80704997    0.41780996    0.03267936    0.07290000
opls_261-197    C    0.87326003    0.44664002    0.01459064    -0.08980000
opls_261-198    C    0.88720002    0.45268002    0.01481979    -0.11200000
opls_700-199    C    0.90383003    0.45979002    0.01648042    0.12930000
opls_145-200    C    0.91078003    0.45067997    0.99105041    -0.11540000
opls_145-201    C    0.92693004    0.45753000    0.99512985    -0.11490000
opls_700-202    C    0.93619997    0.47350004    0.02471003    0.13560000
opls_145-203    C    0.92925993    0.48261994    0.04962940    -0.11590000
opls_145-204    C    0.91310002    0.47577003    0.04550045    -0.11610000
opls_261-205    C    0.95280003    0.48046998    0.03174013    -0.09710000
opls_261-206    C    0.96669003    0.48618004    0.03890036    -0.11370000
opls_145-207    C    0.78163997    0.39446995    0.05572027    0.19500000
opls_181-208    C    0.51841000    0.54184996    0.52256988    -0.19480000
opls_181-209    C    0.97072999    0.45876996    0.14895044    -0.19480000
opls_261-210    C    0.35073998    0.67605993    0.70266069    -0.12350000
opls_700-211    C    0.31837999    0.65921000    0.66334022    -0.00200000
opls_700-212    C    0.35240004    0.65178999    0.67332947    0.06970000
opls_145-213    C    0.34533994    0.63606995    0.62109030    -0.12800000
opls_145-214    C    0.35380002    0.62834004    0.62011995    -0.12220000
opls_700-215    C    0.36953998    0.63605999    0.67235063    0.06780000
opls_145-216    C    0.37663004    0.65175998    0.72389951    -0.12210000
opls_145-217    C    0.36821004    0.65952998    0.72378069    -0.12710000
opls_700-218    C    0.37847999    0.62775997    0.67528997    0.07030000
opls_145-219    C    0.37135003    0.61211999    0.73049960    -0.12440000
opls_145-220    C    0.37983993    0.60442993    0.73663998    -0.16580000
opls_145-221    C    0.39562999    0.61217004    0.69069962    0.19480000
opls_145-222    C    0.40277000    0.62772997    0.63191977    -0.16470000
opls_145-223    C    0.39425998    0.63540995    0.62437054    -0.12710000
opls_166-224    C    0.00973000    0.51844994    0.53451963    0.07240000
opls_145-225    C    0.00779994    0.49321994    0.56600939    -0.11340000
opls_700-226    C    0.01690997    0.50931001    0.54763070    0.03470000
opls_145-227    C    0.16881999    0.58565004    0.53364971    -0.12710000
opls_145-228    C    0.15265996    0.57864999    0.52651069    -0.11600000
opls_700-229    C    0.14351000    0.56254000    0.51018021    0.13450000
opls_145-230    C    0.15058000    0.55344999    0.50013013    -0.11600000
opls_145-231    C    0.16674004    0.56043001    0.50726067    -0.12340000
opls_700-232    C    0.17599998    0.57657996    0.52460960    0.07080000
opls_142-233    C    0.19302998    0.58365996    0.53505007    0.07190000
opls_261-234    C    0.12688002    0.55536003    0.50658029    -0.11200000
opls_261-235    C    0.11295001    0.54942000    0.50528036    -0.08980000
opls_700-236    C    0.09633994    0.54244995    0.50589991    0.13560000
opls_145-237    C    0.08955999    0.55166994    0.53462996    -0.11430000
opls_145-238    C    0.07340998    0.54489997    0.53961044    -0.11430000
opls_700-239    C    0.06397998    0.52887003    0.51575054    0.13560000
opls_145-240    C    0.07075005    0.51966001    0.48576016    -0.11610000
opls_145-241    C    0.08690998    0.52643995    0.48090981    -0.11590000
opls_261-242    C    0.04739002    0.52189998    0.52520935    -0.08970000
opls_261-243    C    0.03350004    0.51613999    0.53480961    -0.11370000
opls_261-244    C    0.67496003    0.32465997    0.67628013    -0.12350000
opls_700-245    C    0.65770994    0.33988995    0.68978019    -0.00100000
opls_700-246    C    0.64854997    0.34796997    0.69836059    0.07160000
opls_145-247    C    0.65535996    0.36375998    0.65119950    -0.12550000
opls_145-248    C    0.64677005    0.37133002    0.65974030    -0.12210000
opls_700-249    C    0.63114997    0.36337002    0.71701935    0.06780000
opls_145-250    C    0.62432003    0.34761002    0.76430067    -0.12210000
opls_145-251    C    0.63287006    0.33999005    0.75435951    -0.12710000
opls_700-252    C    0.62205003    0.37149001    0.72889980    0.07020000
opls_145-253    C    0.62915003    0.38706998    0.78628069    -0.12320000
opls_145-254    C    0.62057002    0.39464998    0.79826016    -0.16430000
opls_145-255    C    0.59757001    0.37130001    0.69612991    -0.16480000
opls_145-256    C    0.60616995    0.36373993    0.68278969    -0.12710000
opls_166-257    C    0.48826998    0.48106997    0.91542944    0.07240000
opls_700-258    C    0.50457003    0.48804998    0.93119978    0.02410000
opls_145-259    C    0.51368995    0.50413993    0.94827006    -0.12020000
opls_145-260    C    0.58362002    0.41531001    0.79871987    -0.12800000
opls_145-261    C    0.57667000    0.42446999    0.81425965    -0.11600000
opls_700-262    C    0.56052993    0.41749994    0.82916997    0.12640000
opls_145-263    C    0.55133998    0.40134002    0.82829014    -0.11600000
opls_145-264    C    0.55825995    0.39216000    0.81272066    -0.12220000
opls_700-265    C    0.57444999    0.39905000    0.79786975    0.07080000
opls_142-266    C    0.58149000    0.38911996    0.78199049    0.07170000
opls_261-267    C    0.55338004    0.42691004    0.84509025    -0.11200000
opls_261-268    C    0.54733998    0.43475998    0.85812069    -0.11200000
opls_700-269    C    0.54004000    0.44403998    0.87308051    0.12870000
opls_145-270    C    0.54904002    0.46001999    0.90480932    -0.11610000
opls_145-271    C    0.54191999    0.46904002    0.91771953    -0.11610000
opls_700-272    C    0.52578998    0.46210994    0.89895044    0.12850000
opls_145-273    C    0.51680001    0.44612993    0.86768983    -0.11540000
opls_145-274    C    0.52391005    0.43711002    0.85478952    -0.11540000
opls_261-275    C    0.51844996    0.47137001    0.91086059    -0.11200000
opls_261-276    C    0.51216997    0.47901003    0.92035051    -0.11370000
opls_145-277    C    0.60471992    0.38682994    0.75607955    0.19500000
opls_261-278    C    0.32616998    0.67528999    0.68970946    -0.12350000
opls_700-279    C    0.34332000    0.65996999    0.67720946    -0.00080000
opls_700-280    C    0.35037000    0.70095999    0.73663008    0.07030000
opls_145-281    C    0.36637995    0.71018994    0.70214015    -0.12320000
opls_145-282    C    0.37387997    0.72624003    0.72517964    -0.12200000
opls_700-283    C    0.36561996    0.73351998    0.78507978    0.07000000
opls_145-284    C    0.34963994    0.72427995    0.82126994    -0.12320000
opls_145-285    C    0.34209994    0.70823994    0.79631945    -0.12440000
opls_700-286    C    0.37360996    0.75063996    0.81016041    0.07160000
opls_145-287    C    0.38909999    0.75894994    0.87267031    -0.12440000
opls_145-288    C    0.39655997    0.77501000    0.89570980    -0.16560000
opls_145-289    C    0.38871995    0.78310994    0.86006988    0.19500000
opls_145-290    C    0.37329004    0.77491998    0.79517936    -0.16470000
opls_145-291    C    0.36584998    0.75887000    0.77038022    -0.12800000
opls_166-292    C    0.48138002    0.49040002    0.91091009    0.07240000
opls_145-293    C    0.50686006    0.51339004    0.94325987    -0.11370000
opls_700-294    C    0.49079995    0.50667996    0.92166035    0.03710000
opls_145-295    C    0.41645997    0.58340995    0.73125071    -0.12620000
opls_145-296    C    0.42330000    0.57417003    0.74845960    -0.11740000
opls_700-297    C    0.43946000    0.58101995    0.75707961    0.12190000
opls_145-298    C    0.44878002    0.59714998    0.74768021    -0.11570000
opls_145-299    C    0.44195998    0.60640993    0.73049960    -0.12340000
opls_700-300    C    0.42574996    0.59963996    0.72253027    0.06920000
opls_142-301    C    0.41880995    0.60967994    0.70681934    0.07190000
opls_261-302    C    0.44645997    0.57148994    0.77701001    -0.11370000
opls_261-303    C    0.45224005    0.56344004    0.79437026    -0.11200000
opls_700-304    C    0.45901998    0.55373000    0.81568971    0.13170000
opls_145-305    C    0.44959004    0.53759001    0.80900051    -0.11580000
opls_145-306    C    0.45614003    0.52812001    0.83052931    -0.11590000
opls_700-307    C    0.47214999    0.53475004    0.85891988    0.12600000
opls_145-308    C    0.48158998    0.55089004    0.86529931    -0.11800000
opls_145-309    C    0.47503996    0.56037000    0.84382992    -0.11800000
opls_261-310    C    0.47883000    0.52497999    0.88160009    -0.09710000
opls_261-311    C    0.48431996    0.51667997    0.90027017    -0.11330000
opls_261-312    C    0.67384998    0.34825994    0.66555958    -0.12350000
opls_700-313    C    0.65883002    0.31593999    0.70041021    -0.00090000
opls_700-314    C    0.65081002    0.29876997    0.71882992    0.07190000
opls_145-315    C    0.63521004    0.29029003    0.77715005    -0.12440000
opls_145-316    C    0.62767998    0.27419001    0.79416940    -0.12220000
opls_700-317    C    0.63547999    0.26605994    0.75176955    0.07010000
opls_145-318    C    0.65104996    0.27450002    0.69329948    -0.12340000
opls_145-319    C    0.65863000    0.29061997    0.67762957    -0.12800000
opls_700-320    C    0.62742005    0.24889003    0.76905058    0.07000000
opls_145-321    C    0.61155000    0.23977002    0.72539040    -0.12320000
opls_145-322    C    0.60397998    0.22366003    0.74308023    -0.16550000
opls_145-323    C    0.62792994    0.22531995    0.84650051    -0.16480000
opls_145-324    C    0.63549995    0.24144998    0.83009930    -0.12670000
opls_166-325    C    0.51712998    0.00641999    0.07784033    0.07240000
opls_700-326    C    0.51023996    0.01582998    0.08812946    0.03250000
opls_145-327    C    0.49414996    0.00897995    0.10916035    -0.11930000
opls_145-328    C    0.58323002    0.16692996    0.86849044    -0.12800000
opls_145-329    C    0.57394999    0.15090002    0.89124986    -0.11490000
opls_700-330    C    0.58079995    0.14162998    0.90491966    0.12110000
opls_145-331    C    0.59694996    0.14842000    0.89541983    -0.11570000
opls_145-332    C    0.60623997    0.16443997    0.87265050    -0.12420000
opls_700-333    C    0.59948005    0.17384000    0.85901041    0.07150000
opls_142-334    C    0.60955002    0.19073001    0.83624958    0.07110000
opls_261-335    C    0.57128002    0.12516005    0.92920957    -0.11370000
opls_261-336    C    0.56340001    0.11133997    0.94972983    -0.11370000
opls_700-337    C    0.55412997    0.09484999    0.97443986    0.12940000
opls_145-338    C    0.53791001    0.08758000    0.96933066    -0.11590000
opls_145-339    C    0.52893002    0.07153002    0.99315944    -0.11720000
opls_700-340    C    0.53615998    0.06272003    0.02241004    0.13570000
opls_145-341    C    0.55236995    0.06999998    0.02746973    -0.11570000
opls_145-342    C    0.56135001    0.08603003    0.00355041    -0.11490000
opls_261-343    C    0.52695997    0.04621997    0.04652031    -0.11200000
opls_261-344    C    0.51933000    0.03237997    0.06609002    -0.11370000
opls_145-345    C    0.61206997    0.21627002    0.80169034    0.19500000
opls_261-346    C    0.32712995    0.65173994    0.65767936    -0.12350000
opls_700-347    C    0.34232993    0.68388994    0.70937960    -0.00210000
opls_700-348    C    0.30117997    0.65025995    0.64314954    0.07160000
opls_145-349    C    0.29212996    0.65711994    0.68459036    -0.12520000
opls_145-350    C    0.27597994    0.64864997    0.66883982    -0.12020000
opls_700-351    C    0.26841995    0.63310000    0.60978980    0.07010000
opls_145-352    C    0.27743997    0.62627001    0.56626966    -0.12340000
opls_145-353    C    0.29358997    0.63470002    0.58353938    -0.12800000
opls_700-354    C    0.25119998    0.62403004    0.59435046    0.07110000
opls_145-355    C    0.24275000    0.63116993    0.53655935    -0.12440000
opls_145-356    C    0.22658001    0.62262998    0.52333937    -0.16580000
opls_145-357    C    0.21851002    0.60679004    0.56451001    0.19500000
opls_145-358    C    0.22687004    0.59959999    0.62453038    -0.16470000
opls_145-359    C    0.24303001    0.60815001    0.63924975    -0.12670000
opls_166-360    C    0.50764003    0.99021999    0.08094942    0.09980000
opls_145-361    C    0.48482003    0.99289996    0.11446051    -0.10740000
opls_700-362    C    0.49145998    0.98348998    0.09767031    0.04130000
opls_145-363    C    0.41676996    0.83243993    0.93511938    -0.12800000
opls_145-364    C    0.42577997    0.84846998    0.95890008    -0.11600000
opls_700-365    C    0.41863000    0.85740996    0.98103004    0.13290000
opls_145-366    C    0.40242996    0.85025999    0.97963958    -0.11740000
opls_145-367    C    0.39339994    0.83422994    0.95589991    -0.12420000
opls_700-368    C    0.40046999    0.82516994    0.93312069    0.07000000
opls_142-369    C    0.39069000    0.80827993    0.90695938    0.07130000
opls_261-370    C    0.42794003    0.87391998    0.00344998    -0.11200000
opls_261-371    C    0.43579997    0.88775999    0.02112001    -0.11200000
opls_700-372    C    0.44525994    0.90427997    0.04072932    0.14180000
opls_145-373    C    0.46129001    0.91103002    0.06834050    -0.11590000
opls_145-374    C    0.47054998    0.92711000    0.08386047    -0.11430000
opls_700-375    C    0.46382001    0.93651003    0.07182019    0.13560000
opls_145-376    C    0.44777995    0.92976994    0.04509025    -0.11590000
opls_145-377    C    0.43850996    0.91367999    0.02963958    -0.11800000
opls_261-378    C    0.47342004    0.95306001    0.08342056    -0.08970000
opls_261-379    C    0.48158006    0.96693003    0.09113953    -0.11370000
opls_261-380    C    0.65040002    0.32373999    0.70695938    -0.12350000
opls_700-381    C    0.68264997    0.34082996    0.65852948    -0.00100000
opls_700-382    C    0.69979996    0.34994001    0.63525942    0.06990000
opls_145-383    C    0.70904999    0.34324997    0.67419939    -0.12550000
opls_145-384    C    0.72518000    0.35190994    0.65672032    -0.12020000
opls_700-385    C    0.73253004    0.36746998    0.59831957    0.07040000
opls_145-386    C    0.72329993    0.37411994    0.55722955    -0.12340000
opls_145-387    C    0.70718002    0.36551002    0.57621931    -0.12800000
opls_700-388    C    0.74973002    0.37674002    0.58146996    0.07040000
opls_145-389    C    0.75831994    0.36976997    0.52242984    -0.12320000
opls_145-390    C    0.77448000    0.37842994    0.51026932    -0.16550000
opls_145-391    C    0.77392998    0.40128001    0.61339963    -0.16480000
opls_145-392    C    0.75777004    0.39260000    0.62727028    -0.12620000
opls_166-393    C    0.99344997    0.51116999    0.53336964    0.10200000
opls_700-394    C    0.98443004    0.49496002    0.54794048    0.04100000
opls_145-395    C    0.99165997    0.48607994    0.56627956    -0.11140000
opls_145-396    C    0.83219002    0.41549005    0.53186036    -0.12710000
opls_145-397    C    0.84835999    0.42251999    0.52740042    -0.11540000
opls_700-398    C    0.85751996    0.43865999    0.51581985    0.11370000
opls_145-399    C    0.85044001    0.44774999    0.50799055    -0.11600000
opls_145-400    C    0.83426993    0.44074994    0.51247030    -0.12220000
opls_700-401    C    0.82499998    0.42456997    0.52486987    0.06870000
opls_142-402    C    0.80795995    0.41746994    0.53232998    0.07300000
opls_261-403    C    0.87416000    0.44589997    0.51433037    -0.11370000
opls_261-404    C    0.88811003    0.45202002    0.51441949    -0.11370000
opls_700-405    C    0.90476000    0.45938999    0.51621025    0.13180000
opls_145-406    C    0.91202997    0.45058000    0.49066991    -0.11590000
opls_145-407    C    0.92821998    0.45774004    0.49555986    -0.11590000
opls_700-408    C    0.93719001    0.47373001    0.52613019    0.12600000
opls_145-409    C    0.92992997    0.48254997    0.55077939    -0.11610000
opls_145-410    C    0.91373997    0.47540000    0.54584984    -0.11600000
opls_261-411    C    0.95381998    0.48109998    0.53363981    -0.08980000
opls_261-412    C    0.96776996    0.48735998    0.54034033    -0.11370000
opls_145-413    C    0.78242998    0.39423999    0.55349949    0.19500000
opls_181-414    C    0.45647000    0.48581997    0.01808023    -0.19490000
opls_181-415    C    0.47902994    0.45521994    0.03206971    -0.19490000
opls_181-416    C    0.02927001    0.54341001    0.64872977    -0.19460000
opls_181-417    C    0.98247998    0.52479000    0.67782053    -0.19480000
opls_181-418    C    0.54328001    0.02334001    0.18439940    -0.19490000
opls_181-419    C    0.51803998    0.97615002    0.22715995    -0.19480000
opls_750-420    N    0.20116001    0.59915003    0.04722049    -0.33320000
opls_750-421    N    0.59545003    0.39489999    0.27199983    -0.34040000
opls_750-422    N    0.40269005    0.60337001    0.20465939    -0.34490000
opls_750-423    N    0.60409996    0.19967995    0.32092056    -0.34040000
opls_750-424    N    0.39719998    0.79965993    0.38783948    -0.34040000
opls_750-425    N    0.79827998    0.40285002    0.04280016    -0.34040000
opls_750-426    N    0.20189007    0.59858004    0.54913998    -0.34480000
opls_750-427    N    0.59646001    0.39518000    0.77240014    -0.34040000
opls_750-428    N    0.40384001    0.60374004    0.70385029    -0.33320000
opls_750-429    N    0.60360999    0.19969003    0.82053016    -0.34040000
opls_750-430    N    0.39693006    0.79960004    0.88794981    -0.33310000
opls_750-431    N    0.79907996    0.40251996    0.54109992    -0.33320000
opls_179-432    O    0.46725000    0.98587998    0.55408934    -0.17840000
opls_179-433    O    0.53171997    0.51290996    0.38821998    -0.17840000
opls_179-434    O    0.01320996    0.48135995    0.00066057    -0.21360000
opls_179-435    O    0.48499001    0.01777998    0.54589934    -0.21360000
opls_179-436    O    0.51880996    0.53178994    0.38125071    -0.19800000
opls_179-437    O    0.98157999    0.46759999    0.00362963    -0.19840000
opls_179-438    O    0.46531003    0.48319004    0.87860982    -0.19830000
opls_179-439    O    0.47872004    0.46505000    0.88686064    -0.19840000
opls_179-440    O    0.01831999    0.53451996    0.50455047    -0.20260000
opls_179-441    O    0.98634007    0.52009004    0.50547980    -0.17960000
opls_179-442    O    0.53309997    0.01267003    0.04536042    -0.21360000
opls_179-443    O    0.51430997    0.98088994    0.05420957    -0.17950000
opls_146-444    H    0.33249000    0.62971994    0.07728019    0.12230000
opls_146-445    H    0.34721995    0.61631993    0.07378069    0.12270000
opls_146-446    H    0.38782000    0.65789000    0.26885962    0.12260000
opls_146-447    H    0.37331993    0.67149993    0.26626966    0.11950000
opls_146-448    H    0.35833004    0.60582999    0.27372977    0.12230000
opls_146-449    H    0.37306004    0.59223002    0.28247991    0.11510000
opls_146-450    H    0.41383002    0.63364995    0.08984950    0.12250000
opls_146-451    H    0.39919999    0.64710996    0.07687988    0.11810000
opls_146-452    H    0.01552001    0.52847000    0.07949955    0.11760000
opls_146-453    H    0.17505006    0.59899004    0.04721059    0.12270000
opls_146-454    H    0.14669002    0.58689996    0.03524952    0.11640000
opls_146-455    H    0.14250995    0.54187997    0.98837982    0.11530000
opls_146-456    H    0.17089996    0.55386995    0.00028007    0.11530000
opls_144-457    H    0.19695993    0.57661993    0.02763947    0.12100000
opls_146-458    H    0.09514001    0.56439002    0.05520963    0.11640000
opls_146-459    H    0.06658002    0.55168002    0.06312946    0.11850000
opls_146-460    H    0.06332995    0.50743994    0.96794019    0.11850000
opls_146-461    H    0.09185001    0.52013001    0.95997935    0.12000000
opls_146-462    H    0.66652995    0.37021994    0.10750962    0.12260000
opls_146-463    H    0.65152996    0.38329996    0.12044953    0.12230000
opls_146-464    H    0.61159005    0.34106004    0.31353966    0.12030000
opls_146-465    H    0.62638995    0.32776998    0.29490070    0.11950000
opls_146-466    H    0.64036998    0.39325004    0.32616980    0.12260000
opls_146-467    H    0.62526997    0.40644001    0.34343952    0.12000000
opls_146-468    H    0.58462000    0.36479997    0.15358012    0.12100000
opls_146-469    H    0.59961994    0.35174995    0.13147986    0.12270000
opls_146-470    H    0.48270995    0.47116994    0.46091009    0.11970000
opls_146-471    H    0.59494995    0.42060000    0.28781968    0.11530000
opls_146-472    H    0.58256000    0.43648998    0.31516069    0.11720000
opls_146-473    H    0.53763000    0.39521001    0.34020029    0.11530000
opls_146-474    H    0.54991002    0.37916999    0.31293001    0.11640000
opls_144-475    H    0.57295001    0.37633003    0.28405992    0.10740000
opls_146-476    H    0.56077998    0.46490994    0.42021048    0.11530000
opls_146-477    H    0.54879998    0.48131998    0.44434056    0.12100000
opls_146-478    H    0.50369004    0.44126999    0.35309070    0.11760000
opls_146-479    H    0.51568002    0.42484998    0.32917987    0.12030000
opls_185-480    H    0.46054998    0.97392000    0.81154945    0.07490000
opls_185-481    H    0.44622995    0.97692992    0.69410009    0.07450000
opls_185-482    H    0.46233004    0.99301999    0.81034995    0.08510000
opls_185-483    H    0.55269000    0.52162993    0.52910066    0.09020000
opls_185-484    H    0.53651998    0.50554995    0.64397986    0.07450000
opls_185-485    H    0.53838000    0.52467994    0.64669995    0.08510000
opls_146-486    H    0.37250993    0.70489996    0.15387999    0.12000000
opls_146-487    H    0.38570994    0.73279997    0.19212968    0.11960000
opls_146-488    H    0.34273994    0.72962994    0.37370007    0.12010000
opls_146-489    H    0.32938997    0.70174997    0.32844008    0.11990000
opls_146-490    H    0.39518996    0.75289002    0.40713053    0.12230000
opls_146-491    H    0.40847994    0.78099995    0.44442967    0.11530000
opls_146-492    H    0.36722993    0.78109993    0.25935979    0.11830000
opls_146-493    H    0.35407996    0.75324000    0.21674069    0.11950000
opls_146-494    H    0.47091998    0.48766999    0.45242022    0.11510000
opls_146-495    H    0.40255999    0.57736995    0.22517964    0.11530000
opls_146-496    H    0.41445002    0.56103996    0.25493946    0.11640000
opls_146-497    H    0.45989996    0.60171994    0.25361972    0.11720000
opls_146-498    H    0.44811999    0.61819000    0.22381040    0.11990000
opls_144-499    H    0.42539999    0.62159995    0.20400023    0.12100000
opls_146-500    H    0.43651999    0.53161002    0.28569933    0.11510000
opls_146-501    H    0.44886003    0.51560998    0.32403955    0.12100000
opls_146-502    H    0.49342997    0.55697997    0.38745049    0.11640000
opls_146-503    H    0.48111003    0.57295997    0.34888961    0.11660000
opls_146-504    H    0.62815994    0.29581994    0.31405030    0.11950000
opls_146-505    H    0.61540995    0.26784995    0.34531940    0.12230000
opls_146-506    H    0.65716004    0.26884001    0.15577968    0.11820000
opls_146-507    H    0.67013001    0.29681996    0.13061984    0.12000000
opls_146-508    H    0.60480005    0.24471002    0.17573979    0.11960000
opls_146-509    H    0.59188001    0.21655004    0.20997935    0.11990000
opls_146-510    H    0.63491000    0.22045004    0.39916968    0.12050000
opls_146-511    H    0.64769003    0.24836002    0.36995021    0.12270000
opls_146-512    H    0.52816002    0.01232004    0.61886953    0.11510000
opls_146-513    H    0.57839995    0.17368997    0.35886047    0.12030000
opls_146-514    H    0.56248004    0.14555003    0.39888961    0.11640000
opls_146-515    H    0.60373005    0.14174004    0.40545010    0.11850000
opls_146-516    H    0.61980006    0.16993003    0.36534033    0.12260000
opls_144-517    H    0.62266998    0.19572005    0.32933971    0.12140000
opls_146-518    H    0.53354002    0.09510000    0.44739023    0.12000000
opls_146-519    H    0.51708006    0.06690004    0.48928935    0.11510000
opls_146-520    H    0.55797005    0.06276000    0.54922061    0.11780000
opls_146-521    H    0.57444001    0.09098995    0.50736958    0.11510000
opls_185-522    H    0.03528998    0.48600000    0.07758996    0.07450000
opls_185-523    H    0.01940997    0.46993995    0.19687960    0.07450000
opls_185-524    H    0.02494000    0.48940996    0.26384944    0.07470000
opls_185-525    H    0.49323001    0.04080001    0.61828958    0.07440000
opls_185-526    H    0.49470002    0.02932996    0.80618988    0.07450000
opls_185-527    H    0.47608998    0.02677000    0.74195994    0.07430000
opls_146-528    H    0.29679999    0.66912996    0.23322960    0.11850000
opls_146-529    H    0.26875002    0.65439999    0.20689006    0.12290000
opls_146-530    H    0.27129994    0.61455993    0.01652993    0.12270000
opls_146-531    H    0.29933002    0.62907001    0.04891932    0.11960000
opls_146-532    H    0.24809002    0.64361995    0.99568010    0.12030000
opls_146-533    H    0.21978001    0.62885001    0.97497030    0.11780000
opls_146-534    H    0.22011999    0.58784993    0.16243069    0.11920000
opls_146-535    H    0.24817993    0.60250993    0.18846045    0.11820000
opls_146-536    H    0.51208998    0.98399995    0.62924069    0.11660000
opls_146-537    H    0.42298999    0.82569996    0.41741966    0.11530000
opls_146-538    H    0.43896994    0.85382994    0.45925936    0.11720000
opls_146-539    H    0.39767994    0.85744993    0.49704934    0.11590000
opls_146-540    H    0.38155997    0.82927998    0.45522943    0.12030000
opls_144-541    H    0.37863996    0.80355993    0.40870063    0.09540000
opls_146-542    H    0.46753002    0.90436002    0.57641026    0.11510000
opls_146-543    H    0.48354999    0.93275993    0.60342028    0.11520000
opls_146-544    H    0.44262997    0.93676999    0.53661027    0.11760000
opls_146-545    H    0.42663001    0.90837993    0.50940930    0.11850000
opls_146-546    H    0.70314994    0.33139994    0.22244964    0.12030000
opls_146-547    H    0.73115998    0.34654002    0.19426983    0.12070000
opls_146-548    H    0.72768000    0.38593997    0.00672032    0.12000000
opls_146-549    H    0.69966996    0.37099996    0.04153983    0.11820000
opls_146-550    H    0.75192997    0.35781996    0.98534005    0.12380000
opls_146-551    H    0.78023002    0.37312003    0.96733054    0.11810000
opls_146-552    H    0.77872997    0.41345999    0.15750962    0.12050000
opls_146-553    H    0.75068996    0.39827994    0.18040059    0.12000000
opls_146-554    H    0.98717995    0.51610999    0.08184056    0.11780000
opls_146-555    H    0.82462000    0.40354999    0.04192033    0.11510000
opls_146-556    H    0.85300999    0.41612004    0.03403021    0.11760000
opls_146-557    H    0.85636000    0.46083998    0.99885001    0.12100000
opls_146-558    H    0.82790999    0.44837002    0.00666940    0.11720000
opls_144-559    H    0.80201996    0.42523994    0.02672994    0.09680000
opls_146-560    H    0.90371001    0.43831000    0.96845932    0.11530000
opls_146-561    H    0.93218997    0.45038004    0.97563936    0.11640000
opls_146-562    H    0.93632999    0.49497995    0.07312012    0.11510000
opls_146-563    H    0.90782998    0.48291003    0.06582975    0.11790000
opls_185-564    H    0.51061998    0.53554003    0.64300951    0.07450000
opls_185-565    H    0.51453000    0.54945001    0.45708951    0.07440000
opls_185-566    H    0.53029003    0.54923001    0.57927040    0.07450000
opls_185-567    H    0.97343000    0.44989995    0.20173984    0.09020000
opls_185-568    H    0.95884001    0.45277004    0.08866980    0.07430000
opls_185-569    H    0.97101997    0.46590000    0.27120063    0.07430000
opls_146-570    H    0.33327004    0.62970001    0.57903983    0.12260000
opls_146-571    H    0.34803998    0.61634994    0.57553044    0.12260000
opls_146-572    H    0.38863001    0.65799994    0.76888933    0.12270000
opls_146-573    H    0.37408000    0.67155994    0.76678030    0.11960000
opls_146-574    H    0.35930007    0.60591004    0.77355013    0.11970000
opls_146-575    H    0.37417000    0.59243994    0.78147986    0.11850000
opls_146-576    H    0.41477003    0.63397004    0.58796962    0.12240000
opls_146-577    H    0.39999998    0.64728999    0.57545971    0.11990000
opls_146-578    H    0.01317999    0.48612999    0.57864943    0.12030000
opls_146-579    H    0.17565993    0.59812996    0.54727990    0.11530000
opls_146-580    H    0.14729996    0.58578999    0.53476010    0.11640000
opls_146-581    H    0.14358994    0.54096996    0.48754951    0.11640000
opls_146-582    H    0.17200999    0.55320995    0.49999010    0.11850000
opls_144-583    H    0.19796996    0.57616000    0.52734950    0.09020000
opls_146-584    H    0.09675002    0.56405996    0.55463958    0.11780000
opls_146-585    H    0.06828999    0.55212002    0.56344065    0.11820000
opls_146-586    H    0.06354999    0.50724995    0.46704057    0.12120000
opls_146-587    H    0.09204001    0.51921004    0.45852948    0.11850000
opls_146-588    H    0.66733001    0.37029999    0.60515022    0.11970000
opls_146-589    H    0.65231994    0.38338998    0.61818066    0.11810000
opls_146-590    H    0.61243000    0.34119003    0.81315067    0.12260000
opls_146-591    H    0.62719998    0.32789000    0.79391055    0.12230000
opls_146-592    H    0.64128000    0.39335999    0.82575959    0.12270000
opls_146-593    H    0.62624995    0.40660996    0.84392045    0.11960000
opls_146-594    H    0.58550001    0.36501997    0.65498048    0.12300000
opls_146-595    H    0.60041998    0.35189998    0.63236958    0.12000000
opls_146-596    H    0.52617004    0.50956998    0.96258063    0.11970000
opls_146-597    H    0.59612994    0.42095994    0.78731046    0.12000000
opls_146-598    H    0.58388001    0.43696995    0.81465005    0.11530000
opls_146-599    H    0.53882997    0.39584000    0.83976038    0.11720000
opls_146-600    H    0.55098005    0.37967001    0.81240947    0.11860000
opls_144-601    H    0.57392003    0.37668997    0.78367942    0.12380000
opls_146-602    H    0.56152005    0.46548004    0.91930944    0.11850000
opls_146-603    H    0.54897002    0.48138995    0.94211978    0.11510000
opls_146-604    H    0.50432003    0.44067000    0.85261967    0.11510000
opls_146-605    H    0.51684997    0.42476993    0.82988005    0.11780000
opls_146-606    H    0.37312000    0.70504999    0.65365933    0.11530000
opls_146-607    H    0.38611995    0.73295996    0.69209998    0.12270000
opls_146-608    H    0.34295004    0.72939002    0.87241004    0.11820000
opls_146-609    H    0.32980993    0.70153994    0.82702982    0.11990000
opls_146-610    H    0.39541002    0.75305001    0.90752942    0.12470000
opls_146-611    H    0.40846000    0.78114998    0.94506054    0.11780000
opls_146-612    H    0.36703002    0.78082003    0.75864971    0.12200000
opls_146-613    H    0.35412000    0.75298003    0.71576044    0.12230000
opls_146-614    H    0.51418002    0.52585003    0.95332975    0.11780000
opls_146-615    H    0.40392998    0.57786000    0.72539040    0.11830000
opls_146-616    H    0.41598997    0.56169996    0.75566934    0.11810000
opls_146-617    H    0.46130002    0.60255998    0.75429020    0.11970000
opls_146-618    H    0.44933997    0.61888000    0.72401975    0.11510000
opls_144-619    H    0.42649005    0.62209000    0.70385029    0.12380000
opls_146-620    H    0.43718998    0.53234000    0.78715062    0.12100000
opls_146-621    H    0.44872999    0.51564994    0.82504951    0.11510000
opls_146-622    H    0.49399001    0.55612997    0.88721993    0.11660000
opls_146-623    H    0.48243998    0.57283995    0.84940025    0.11780000
opls_146-624    H    0.62881003    0.29608999    0.81261033    0.12230000
opls_146-625    H    0.61581006    0.26814004    0.84420052    0.12260000
opls_146-626    H    0.65735003    0.26862998    0.65588011    0.12000000
opls_146-627    H    0.67058004    0.29664005    0.63028036    0.11820000
opls_146-628    H    0.60500998    0.24503000    0.67444976    0.12360000
opls_146-629    H    0.59175996    0.21687002    0.70879965    0.12030000
opls_146-630    H    0.63448999    0.22015995    0.89919939    0.12570000
opls_146-631    H    0.64759999    0.24808997    0.87000962    0.12290000
opls_146-632    H    0.48875995    0.01608995    0.11896005    0.12120000
opls_146-633    H    0.57767997    0.17387997    0.85859030    0.11820000
opls_146-634    H    0.56145997    0.14575995    0.89852043    0.11850000
opls_146-635    H    0.60236002    0.14134001    0.90593952    0.11530000
opls_146-636    H    0.61873004    0.16949003    0.86589057    0.11660000
opls_144-637    H    0.62195997    0.19541004    0.82980932    0.12480000
opls_146-638    H    0.53222002    0.09428997    0.94657972    0.11830000
opls_146-639    H    0.51639000    0.06600000    0.98852976    0.11640000
opls_146-640    H    0.55806999    0.06329002    0.05002970    0.11510000
opls_146-641    H    0.57387995    0.09154998    0.00784061    0.12000000
opls_146-642    H    0.29745997    0.66899998    0.73282930    0.11990000
opls_146-643    H    0.26942004    0.65421000    0.70732007    0.12310000
opls_146-644    H    0.27206996    0.61444998    0.51576044    0.11950000
opls_146-645    H    0.30010000    0.62901997    0.54769011    0.11960000
opls_146-646    H    0.24861000    0.64329997    0.49819933    0.11950000
opls_146-647    H    0.22030001    0.62834004    0.47792944    0.11970000
opls_146-648    H    0.22102997    0.58754003    0.66523000    0.12300000
opls_146-649    H    0.24907997    0.60236998    0.69031063    0.11950000
opls_146-650    H    0.47236995    0.98780994    0.12944014    0.11660000
opls_146-651    H    0.42256001    0.82575997    0.91778036    0.11650000
opls_146-652    H    0.43832006    0.85390003    0.95951963    0.12100000
opls_146-653    H    0.39678997    0.85708002    0.99663064    0.11970000
opls_146-654    H    0.38087002    0.82889003    0.95493946    0.11720000
opls_144-655    H    0.37822005    0.80326000    0.90845027    0.12320000
opls_146-656    H    0.46662001    0.90386001    0.07704962    0.12120000
opls_146-657    H    0.48294994    0.93221995    0.10437931    0.12100000
opls_146-658    H    0.44248003    0.93695003    0.03494964    0.11850000
opls_146-659    H    0.42612998    0.90858001    0.00778969    0.11780000
opls_146-660    H    0.70388002    0.33138001    0.72214977    0.12270000
opls_146-661    H    0.73189002    0.34647005    0.69341971    0.12360000
opls_146-662    H    0.72849994    0.38594993    0.50735968    0.11820000
opls_146-663    H    0.70048998    0.37105001    0.54228952    0.11970000
opls_146-664    H    0.75256006    0.35767004    0.48289012    0.12480000
opls_146-665    H    0.78085996    0.37282994    0.46461044    0.11970000
opls_146-666    H    0.77965994    0.41330997    0.65527045    0.12300000
opls_146-667    H    0.75161001    0.39826001    0.67894930    0.11530000
opls_146-668    H    0.98480003    0.47360002    0.57963958    0.11530000
opls_146-669    H    0.82534999    0.40299993    0.54170957    0.12230000
opls_146-670    H    0.85373004    0.41537999    0.53384067    0.12100000
opls_146-671    H    0.85741995    0.46024995    0.49910037    0.11780000
opls_146-672    H    0.82899998    0.44796999    0.50691977    0.11990000
opls_144-673    H    0.80302994    0.42497997    0.52719956    0.12210000
opls_146-674    H    0.90518999    0.43819994    0.46750028    0.11980000
opls_146-675    H    0.93374000    0.45083000    0.47595055    0.11510000
opls_146-676    H    0.93675999    0.49493002    0.57483026    0.11760000
opls_146-677    H    0.90823001    0.48231004    0.56620035    0.11530000
opls_185-678    H    0.44740994    0.47448999    0.07472983    0.09020000
opls_185-679    H    0.45067997    0.49166001    0.95086002    0.07420000
opls_185-680    H    0.46358994    0.49298998    0.13878013    0.07450000
opls_185-681    H    0.48659004    0.46171998    0.15340048    0.07450000
opls_185-682    H    0.48315999    0.44765997    0.97120063    0.07430000
opls_185-683    H    0.46706999    0.44777003    0.08637971    0.07430000
opls_185-684    H    0.04108995    0.54952995    0.58663998    0.09020000
opls_185-685    H    0.02918996    0.53628993    0.77000962    0.07470000
opls_185-686    H    0.02648994    0.55216996    0.70339057    0.07450000
opls_185-687    H    0.97401003    0.51453998    0.76057061    0.07490000
opls_185-688    H    0.97706998    0.53190000    0.64430944    0.07440000
opls_185-689    H    0.99307997    0.53193000    0.76350996    0.07490000
opls_185-690    H    0.55078996    0.03473996    0.11664026    0.07450000
opls_185-691    H    0.55076995    0.01897996    0.24139980    0.09020000
opls_185-692    H    0.53703996    0.02491998    0.30492956    0.07450000
opls_185-693    H    0.52335994    0.96893992    0.19454990    0.07450000
opls_185-694    H    0.50739997    0.96905994    0.31239957    0.07490000
opls_185-695    H    0.52651992    0.98639992    0.30991994    0.08500000
