#======================================================================
# Crystal Data Generated By AuToFF
#----------------------------------------------------------------------

data_AuToFF_phase_1

_cell_length_a                         43.9032
_cell_length_b                         23.5003
_cell_length_c                         21.3781
_cell_angle_alpha                      90.00
_cell_angle_beta                       90.00
_cell_angle_gamma                      90.00
_symmetry_space_group_name_H-M_alt     'P 1'
_symmetry_space_group_IT_number        1

loop_
_space_group_symop_operation_xyz
   'x, y, z'

loop_
   _atom_site_label
   _atom_site_type_symbol
   _atom_site_fract_x
   _atom_site_fract_y
   _atom_site_fract_z
   _atom_site_charge
opls_145-0    C    0.42181003    0.57213993    0.69656985    -0.11820000
opls_145-1    C    0.57818997    0.42786007    0.19656985    -0.11820000
opls_145-2    C    0.42181003    0.42786007    0.19656985    -0.11820000
opls_145-3    C    0.57818997    0.57213993    0.69656985    -0.11820000
opls_145-4    C    0.39887001    0.56955996    0.74154017    -0.11850000
opls_145-5    C    0.60112999    0.43044004    0.24154017    -0.11850000
opls_145-6    C    0.39887001    0.43044004    0.24154017    -0.11850000
opls_145-7    C    0.60112999    0.56955996    0.74154017    -0.11850000
opls_145-8    C    0.29256000    0.59198010    0.85791020    -0.17140000
opls_145-9    C    0.70744000    0.40801990    0.35791020    -0.17140000
opls_145-10    C    0.29256000    0.40801990    0.35791020    -0.17120000
opls_145-11    C    0.70744000    0.59198010    0.85791020    -0.17140000
opls_145-12    C    0.26984001    0.59254010    0.90344979    -0.13150000
opls_145-13    C    0.73015999    0.40745990    0.40344979    -0.13150000
opls_145-14    C    0.26984001    0.40745990    0.40344979    -0.13150000
opls_145-15    C    0.73015999    0.59254010    0.90344979    -0.13150000
opls_145-16    C    0.08105992    0.66618979    0.47857995    -0.12190000
opls_145-17    C    0.91894008    0.33381021    0.97857995    -0.12190000
opls_145-18    C    0.08105992    0.33381021    0.97857995    -0.12190000
opls_145-19    C    0.91894008    0.66618979    0.47857995    -0.12190000
opls_145-20    C    0.10364005    0.62444011    0.48135990    -0.11920000
opls_145-21    C    0.89635995    0.37555989    0.98135990    -0.11920000
opls_145-22    C    0.10364005    0.37555989    0.98135990    -0.11920000
opls_145-23    C    0.89635995    0.62444011    0.48135990    -0.11920000
opls_145-24    C    0.18048001    0.46941018    0.43631006    -0.18080000
opls_145-25    C    0.81951999    0.53058982    0.93631006    -0.18080000
opls_145-26    C    0.18048001    0.53058982    0.93631006    -0.18080000
opls_145-27    C    0.81951999    0.46941018    0.43631006    -0.18080000
opls_145-28    C    0.20151993    0.42490011    0.43440016    -0.12840000
opls_145-29    C    0.79848007    0.57509989    0.93440016    -0.12840000
opls_145-30    C    0.20151993    0.57509989    0.93440016    -0.12840000
opls_145-31    C    0.79848007    0.42490011    0.43440016    -0.12830000
opls_145-32    C    0.39723004    0.34651004    0.14906002    -0.12030000
opls_145-33    C    0.60276996    0.65348996    0.64906002    -0.12030000
opls_145-34    C    0.39723004    0.65348996    0.64906002    -0.12030000
opls_145-35    C    0.60276996    0.34651004    0.14906002    -0.12030000
opls_145-36    C    0.37429003    0.34909980    0.19405981    -0.12190000
opls_145-37    C    0.62570997    0.65090020    0.69405981    -0.12180000
opls_145-38    C    0.37429003    0.65090020    0.69405981    -0.12190000
opls_145-39    C    0.62570997    0.34909980    0.19405981    -0.12190000
opls_145-40    C    0.29587000    0.30563993    0.36305004    -0.20050000
opls_145-41    C    0.70413000    0.69436007    0.86305004    -0.20050000
opls_145-42    C    0.29587000    0.69436007    0.86305004    -0.20050000
opls_145-43    C    0.70413000    0.30563993    0.36305004    -0.20050000
opls_145-44    C    0.27349009    0.30493015    0.40928006    -0.13200000
opls_145-45    C    0.72650991    0.69506985    0.90928006    -0.13210000
opls_145-46    C    0.27349009    0.69506985    0.90928006    -0.13210000
opls_145-47    C    0.72650991    0.30493015    0.40928006    -0.13210000
opls_145-48    C    0.08178994    0.95734012    0.97574995    -0.12030000
opls_145-49    C    0.91821006    0.04265988    0.47574995    -0.12030000
opls_145-50    C    0.08178994    0.04265988    0.47574995    -0.12030000
opls_145-51    C    0.91821006    0.95734012    0.97574995    -0.12030000
opls_145-52    C    0.10404002    0.91499002    0.97860006    -0.12060000
opls_145-53    C    0.89595998    0.08500998    0.47860006    -0.12060000
opls_145-54    C    0.10404002    0.08500998    0.47860006    -0.12060000
opls_145-55    C    0.89595998    0.91499002    0.97860006    -0.12060000
opls_145-56    C    0.18464007    0.76570980    0.93321015    -0.17570000
opls_145-57    C    0.81535993    0.23429020    0.43321015    -0.17570000
opls_145-58    C    0.18464007    0.23429020    0.43321015    -0.17570000
opls_145-59    C    0.81535993    0.76570980    0.93321015    -0.17570000
opls_145-60    C    0.20571006    0.72120994    0.93179001    -0.13070000
opls_145-61    C    0.79428994    0.27879006    0.43179001    -0.13080000
opls_145-62    C    0.20571006    0.27879006    0.43179001    -0.13080000
opls_145-63    C    0.79428994    0.72120994    0.93179001    -0.13080000
opls_142-64    C    0.35418011    0.38814994    0.68085985    0.06910000
opls_142-65    C    0.64581989    0.61185006    0.18085985    0.06910000
opls_142-66    C    0.35418011    0.61185006    0.18085985    0.06910000
opls_142-67    C    0.64581989    0.38814994    0.68085985    0.06920000
opls_142-68    C    0.14821995    0.42038017    0.03559998    0.06860000
opls_142-69    C    0.85178005    0.57961983    0.53559998    0.06860000
opls_142-70    C    0.14821995    0.57961983    0.53559998    0.06860000
opls_142-71    C    0.85178005    0.42038017    0.03559998    0.06860000
opls_507-72    C    0.43595000    0.60723991    0.53821995    0.18720000
opls_507-73    C    0.56405000    0.39276009    0.03821995    0.18720000
opls_507-74    C    0.43595000    0.39276009    0.03821995    0.18720000
opls_507-75    C    0.56405000    0.60723991    0.53821995    0.18730000
opls_700-76    C    0.44485003    0.61529980    0.60084994    -0.07450000
opls_700-77    C    0.55514997    0.38470020    0.10084994    -0.07450000
opls_700-78    C    0.44485003    0.38470020    0.10084994    -0.07450000
opls_700-79    C    0.55514997    0.61529980    0.60084994    -0.07450000
opls_700-80    C    0.42101009    0.61381004    0.64974015    0.07120000
opls_700-81    C    0.57898991    0.38618996    0.14974015    0.07120000
opls_700-82    C    0.42101009    0.38618996    0.14974015    0.07120000
opls_700-83    C    0.57898991    0.61381004    0.64974015    0.07120000
opls_700-84    C    0.37482006    0.60857989    0.74038993    0.05180000
opls_700-85    C    0.62517994    0.39142011    0.24038993    0.05180000
opls_700-86    C    0.37482006    0.39142011    0.24038993    0.05180000
opls_700-87    C    0.62517994    0.60857989    0.74038993    0.05180000
opls_145-88    C    0.30601004    0.64297009    0.83810021    0.19030000
opls_145-89    C    0.69398996    0.35702991    0.33810021    0.19030000
opls_145-90    C    0.30601004    0.35702991    0.33810021    0.19030000
opls_145-91    C    0.69398996    0.64297009    0.83810021    0.19030000
opls_700-92    C    0.25943006    0.64427007    0.92943012    0.05810000
opls_700-93    C    0.74056994    0.35572993    0.42943012    0.05810000
opls_700-94    C    0.25943006    0.35572993    0.42943012    0.05810000
opls_700-95    C    0.74056994    0.64427007    0.92943012    0.05810000
opls_716-96    C    0.59424006    0.58924992    0.51779017    -0.17220000
opls_716-97    C    0.40575994    0.41075008    0.01779017    -0.17220000
opls_716-98    C    0.59424006    0.41075008    0.01779017    -0.17220000
opls_716-99    C    0.40575994    0.58924992    0.51779017    -0.17220000
opls_507-100    C    0.97538995    0.26556001    0.03083015    0.18760000
opls_507-101    C    0.02461005    0.73443999    0.53083015    0.18760000
opls_507-102    C    0.97538995    0.73443999    0.53083015    0.18760000
opls_507-103    C    0.02461005    0.26556001    0.03083015    0.18760000
opls_716-104    C    0.98505006    0.32326013    0.04713983    -0.17560000
opls_716-105    C    0.01494994    0.67673987    0.54713983    -0.17560000
opls_716-106    C    0.98505006    0.67673987    0.54713983    -0.17560000
opls_716-107    C    0.01494994    0.32326013    0.04713983    -0.17560000
opls_700-108    C    0.92106999    0.29244010    0.02557009    0.06540000
opls_700-109    C    0.07893001    0.70755990    0.52557009    0.06540000
opls_700-110    C    0.92106999    0.70755990    0.52557009    0.06540000
opls_700-111    C    0.07893001    0.29244010    0.02557009    0.06540000
opls_700-112    C    0.87562000    0.37641988    0.03120015    0.05220000
opls_700-113    C    0.12438000    0.62358012    0.53120015    0.05220000
opls_700-114    C    0.87562000    0.62358012    0.53120015    0.05220000
opls_700-115    C    0.12438000    0.37641988    0.03120015    0.05220000
opls_145-116    C    0.82662995    0.50389995    0.99267007    0.19400000
opls_145-117    C    0.17337005    0.49610005    0.49267007    0.19410000
opls_145-118    C    0.82662995    0.49610005    0.49267007    0.19400000
opls_145-119    C    0.17337005    0.50389995    0.99267007    0.19400000
opls_700-120    C    0.78343993    0.59332009    0.98904019    0.06090000
opls_700-121    C    0.21656007    0.40667991    0.48904019    0.06090000
opls_700-122    C    0.78343993    0.40667991    0.48904019    0.06090000
opls_700-123    C    0.21656007    0.59332009    0.98904019    0.06090000
opls_700-124    C    0.05500009    0.24819002    0.02309981    -0.08590000
opls_700-125    C    0.94499991    0.75180998    0.52309981    -0.08590000
opls_700-126    C    0.05500009    0.75180998    0.52309981    -0.08590000
opls_700-127    C    0.94499991    0.24819002    0.02309981    -0.08590000
opls_145-128    C    0.39677996    0.65688991    0.32662023    -0.12440000
opls_145-129    C    0.60322004    0.34311009    0.82662023    -0.12440000
opls_145-130    C    0.39677996    0.34311009    0.82662023    -0.12440000
opls_145-131    C    0.60322004    0.65688991    0.32662023    -0.12440000
opls_145-132    C    0.37474990    0.65494994    0.27963991    -0.12240000
opls_145-133    C    0.62525010    0.34505006    0.77963991    -0.12240000
opls_145-134    C    0.37474990    0.34505006    0.77963991    -0.12240000
opls_145-135    C    0.62525010    0.65494994    0.27963991    -0.12240000
opls_145-136    C    0.29380000    0.69642983    0.11504016    -0.18080000
opls_145-137    C    0.70620000    0.30357017    0.61504016    -0.18080000
opls_145-138    C    0.29380000    0.30357017    0.61504016    -0.18080000
opls_145-139    C    0.70620000    0.69642983    0.11504016    -0.18080000
opls_145-140    C    0.27111008    0.69662983    0.06937988    -0.13350000
opls_145-141    C    0.72888992    0.30337017    0.56937988    -0.13350000
opls_145-142    C    0.27111008    0.30337017    0.56937988    -0.13350000
opls_145-143    C    0.72888992    0.69662983    0.06937988    -0.13350000
opls_145-144    C    0.09837005    0.00641992    0.57598991    -0.11850000
opls_145-145    C    0.90162995    0.99358008    0.07598991    -0.11850000
opls_145-146    C    0.09837005    0.99358008    0.07598991    -0.11850000
opls_145-147    C    0.90162995    0.00641992    0.57598991    -0.11850000
opls_145-148    C    0.12050989    0.04887001    0.57900983    -0.12020000
opls_145-149    C    0.87949011    0.95112999    0.07900983    -0.12030000
opls_145-150    C    0.12050989    0.95112999    0.07900983    -0.12030000
opls_145-151    C    0.87949011    0.04887001    0.57900983    -0.12030000
opls_145-152    C    0.18211998    0.24113990    0.54549001    -0.16590000
opls_145-153    C    0.81788002    0.75886010    0.04549001    -0.16590000
opls_145-154    C    0.18211998    0.75886010    0.04549001    -0.16590000
opls_145-155    C    0.81788002    0.24113990    0.54549001    -0.16590000
opls_145-156    C    0.20300001    0.28584997    0.54419991    -0.12740000
opls_145-157    C    0.79699999    0.71415003    0.04419991    -0.12740000
opls_145-158    C    0.20300001    0.71415003    0.04419991    -0.12740000
opls_145-159    C    0.79699999    0.28584997    0.54419991    -0.12740000
opls_145-160    C    0.42432989    0.41910018    0.77545011    -0.12470000
opls_145-161    C    0.57567011    0.58089982    0.27545011    -0.12470000
opls_145-162    C    0.42432989    0.58089982    0.27545011    -0.12470000
opls_145-163    C    0.57567011    0.41910018    0.77545011    -0.12470000
opls_145-164    C    0.40245996    0.42072016    0.72832993    -0.13070000
opls_145-165    C    0.59754004    0.57927984    0.22832993    -0.13070000
opls_145-166    C    0.40245996    0.57927984    0.22832993    -0.13070000
opls_145-167    C    0.59754004    0.42072016    0.72832993    -0.13070000
opls_145-168    C    0.29870989    0.40539014    0.60452987    -0.16550000
opls_145-169    C    0.70129011    0.59460986    0.10452987    -0.16550000
opls_145-170    C    0.29870989    0.59460986    0.10452987    -0.16550000
opls_145-171    C    0.70129011    0.40539014    0.60452987    -0.16550000
opls_145-172    C    0.27590996    0.40543993    0.55929994    -0.12740000
opls_145-173    C    0.72409004    0.59456007    0.05929994    -0.12740000
opls_145-174    C    0.27590996    0.59456007    0.05929994    -0.12730000
opls_145-175    C    0.72409004    0.40543993    0.55929994    -0.12740000
opls_145-176    C    0.09965993    0.29310988    0.07519003    -0.11620000
opls_145-177    C    0.90034007    0.70689012    0.57519003    -0.11620000
opls_145-178    C    0.09965993    0.70689012    0.57519003    -0.11620000
opls_145-179    C    0.90034007    0.29310988    0.07519003    -0.11620000
opls_145-180    C    0.12219998    0.33481998    0.07801021    -0.12440000
opls_145-181    C    0.87780002    0.66518002    0.57801021    -0.12440000
opls_145-182    C    0.12219998    0.66518002    0.57801021    -0.12440000
opls_145-183    C    0.87780002    0.33481998    0.07801021    -0.12440000
opls_145-184    C    0.18668001    0.52402012    0.04800988    -0.16530000
opls_145-185    C    0.81331999    0.47597988    0.54800988    -0.16530000
opls_145-186    C    0.18668001    0.47597988    0.54800988    -0.16530000
opls_145-187    C    0.81331999    0.52402012    0.04800988    -0.16530000
opls_145-188    C    0.20767006    0.56855019    0.04628007    -0.12870000
opls_145-189    C    0.79232994    0.43144981    0.54628007    -0.12870000
opls_145-190    C    0.20767006    0.43144981    0.54628007    -0.12870000
opls_145-191    C    0.79232994    0.56855019    0.04628007    -0.12870000
opls_142-192    C    0.35053003    0.39580984    0.28754988    0.06860000
opls_142-193    C    0.64946997    0.60419016    0.78754988    0.06860000
opls_142-194    C    0.35053003    0.60419016    0.78754988    0.06860000
opls_142-195    C    0.64946997    0.39580984    0.28754988    0.06860000
opls_142-196    C    0.14674990    0.86640979    0.03517010    0.06850000
opls_142-197    C    0.85325010    0.13359021    0.53517010    0.06850000
opls_142-198    C    0.14674990    0.13359021    0.53517010    0.06850000
opls_142-199    C    0.85325010    0.86640979    0.03517010    0.06850000
opls_507-200    C    0.43597004    0.60971988    0.43694014    0.18740000
opls_507-201    C    0.56402996    0.39028012    0.93694014    0.18750000
opls_507-202    C    0.43597004    0.39028012    0.93694014    0.18750000
opls_507-203    C    0.56402996    0.60971988    0.43694014    0.18740000
opls_700-204    C    0.44496005    0.62080016    0.37493977    -0.07330000
opls_700-205    C    0.55503995    0.37919984    0.87493977    -0.07330000
opls_700-206    C    0.44496005    0.37919984    0.87493977    -0.07330000
opls_700-207    C    0.55503995    0.62080016    0.37493977    -0.07330000
opls_700-208    C    0.42160002    0.61954018    0.32504993    0.07130000
opls_700-209    C    0.57839998    0.38045982    0.82504993    0.07130000
opls_700-210    C    0.42160002    0.38045982    0.82504993    0.07130000
opls_700-211    C    0.57839998    0.61954018    0.32504993    0.07130000
opls_700-212    C    0.37738001    0.61585001    0.23028005    0.05160000
opls_700-213    C    0.62261999    0.38414999    0.73028005    0.05160000
opls_700-214    C    0.37738001    0.38414999    0.73028005    0.05160000
opls_700-215    C    0.62261999    0.61585001    0.23028005    0.05160000
opls_145-216    C    0.30802994    0.64579005    0.13228023    0.19220000
opls_145-217    C    0.69197006    0.35420995    0.63228023    0.19230000
opls_145-218    C    0.30802994    0.35420995    0.63228023    0.19220000
opls_145-219    C    0.69197006    0.64579005    0.13228023    0.19220000
opls_700-220    C    0.26097004    0.64533006    0.04197005    0.05620000
opls_700-221    C    0.73902996    0.35466994    0.54197005    0.05620000
opls_700-222    C    0.26097004    0.35466994    0.54197005    0.05620000
opls_700-223    C    0.73902996    0.64533006    0.04197005    0.05620000
opls_716-224    C    0.59420999    0.59066012    0.45619021    -0.16530000
opls_716-225    C    0.40579001    0.40933988    0.95619021    -0.16530000
opls_716-226    C    0.59420999    0.40933988    0.95619021    -0.16530000
opls_716-227    C    0.40579001    0.59066012    0.45619021    -0.16530000
opls_507-228    C    0.97540999    0.02358991    0.02986000    0.18740000
opls_507-229    C    0.02459001    0.97641009    0.52986000    0.18740000
opls_507-230    C    0.97540999    0.97641009    0.52986000    0.18740000
opls_507-231    C    0.02459001    0.02358991    0.02986000    0.18740000
opls_716-232    C    0.98505006    0.96562980    0.04507978    -0.17140000
opls_716-233    C    0.01494994    0.03437020    0.54507978    -0.17150000
opls_716-234    C    0.98505006    0.03437020    0.54507978    -0.17150000
opls_716-235    C    0.01494994    0.96562980    0.04507978    -0.17150000
opls_700-236    C    0.92118001    0.99672004    0.02452978    0.06700000
opls_700-237    C    0.07881999    0.00327996    0.52452978    0.06710000
opls_700-238    C    0.92118001    0.00327996    0.52452978    0.06700000
opls_700-239    C    0.07881999    0.99672004    0.02452978    0.06700000
opls_700-240    C    0.87648007    0.91143007    0.03043021    0.05240000
opls_700-241    C    0.12351993    0.08856993    0.53043021    0.05240000
opls_700-242    C    0.87648007    0.08856993    0.53043021    0.05240000
opls_700-243    C    0.12351993    0.91143007    0.03043021    0.05240000
opls_145-244    C    0.82669008    0.78582997    0.98989994    0.19360000
opls_145-245    C    0.17330992    0.21417003    0.48989994    0.19360000
opls_145-246    C    0.82669008    0.21417003    0.48989994    0.19370000
opls_145-247    C    0.17330992    0.78582997    0.98989994    0.19370000
opls_700-248    C    0.78355997    0.69636005    0.98764016    0.06020000
opls_700-249    C    0.21644003    0.30363995    0.48764016    0.06020000
opls_700-250    C    0.78355997    0.30363995    0.48764016    0.06020000
opls_700-251    C    0.21644003    0.69636005    0.98764016    0.06020000
opls_700-252    C    0.05497002    0.04103990    0.02237991    -0.07280000
opls_700-253    C    0.94502998    0.95896010    0.52237991    -0.07280000
opls_700-254    C    0.05497002    0.95896010    0.52237991    -0.07280000
opls_700-255    C    0.94502998    0.04103990    0.02237991    -0.07280000
opls_701-256    C    0.76174994    0.64491006    0.98693991    0.01070000
opls_701-257    C    0.23825006    0.35508994    0.48693991    0.01070000
opls_701-258    C    0.76174994    0.35508994    0.48693991    0.01070000
opls_701-259    C    0.23825006    0.64491006    0.98693991    0.01070000
opls_543-260    C    0.47526991    0.62466990    0.61907981    0.17550000
opls_543-261    C    0.52473009    0.37533010    0.11907981    0.17550000
opls_543-262    C    0.47526991    0.37533010    0.11907981    0.17550000
opls_543-263    C    0.52473009    0.62466990    0.61907981    0.17560000
opls_716-264    C    0.48437995    0.64277009    0.67772019    -0.20320000
opls_716-265    C    0.51562005    0.35722991    0.17772019    -0.20310000
opls_716-266    C    0.48437995    0.35722991    0.17772019    -0.20320000
opls_716-267    C    0.51562005    0.64277009    0.67772019    -0.20320000
opls_543-268    C    0.47529998    0.63234980    0.35797007    0.17550000
opls_543-269    C    0.52470002    0.36765020    0.85797007    0.17550000
opls_543-270    C    0.47529998    0.36765020    0.85797007    0.17550000
opls_543-271    C    0.52470002    0.63234980    0.35797007    0.17550000
opls_716-272    C    0.48440000    0.65444016    0.30098980    -0.20320000
opls_716-273    C    0.51560000    0.34555984    0.80098980    -0.20320000
opls_716-274    C    0.48440000    0.34555984    0.80098980    -0.20320000
opls_716-275    C    0.51560000    0.65444016    0.30098980    -0.20320000
opls_543-276    C    0.06395001    0.80897010    0.51374023    0.17710000
opls_543-277    C    0.93604999    0.19102990    0.01374023    0.17710000
opls_543-278    C    0.06395001    0.19102990    0.01374023    0.17710000
opls_543-279    C    0.93604999    0.80897010    0.51374023    0.17710000
opls_716-280    C    0.09277000    0.82608009    0.49605016    -0.20310000
opls_716-281    C    0.90723000    0.17391991    0.99605016    -0.20310000
opls_716-282    C    0.09277000    0.17391991    0.99605016    -0.20310000
opls_716-283    C    0.90723000    0.82608009    0.49605016    -0.20310000
opls_543-284    C    0.06395001    0.90179019    0.51349980    0.17760000
opls_543-285    C    0.93604999    0.09820981    0.01349980    0.17760000
opls_543-286    C    0.06395001    0.09820981    0.01349980    0.17760000
opls_543-287    C    0.93604999    0.90179019    0.51349980    0.17770000
opls_716-288    C    0.09277000    0.88466020    0.49597018    -0.20310000
opls_716-289    C    0.90723000    0.11533980    0.99597018    -0.20310000
opls_716-290    C    0.09277000    0.11533980    0.99597018    -0.20300000
opls_716-291    C    0.90723000    0.88466020    0.49597018    -0.20310000
opls_146-292    H    0.60354006    0.68620996    0.61343992    0.11310000
opls_146-293    H    0.39645994    0.31379004    0.11343992    0.11310000
opls_146-294    H    0.60354006    0.31379004    0.11343992    0.11310000
opls_146-295    H    0.39645994    0.68620996    0.61343992    0.11310000
opls_146-296    H    0.64401000    0.68159981    0.69262002    0.11780000
opls_146-297    H    0.35599000    0.31840019    0.19262002    0.11780000
opls_146-298    H    0.64401000    0.31840019    0.19262002    0.11790000
opls_146-299    H    0.35599000    0.68159981    0.69262002    0.11780000
opls_146-300    H    0.69361003    0.73372000    0.84832001    0.11590000
opls_146-301    H    0.30638997    0.26628000    0.34832001    0.11580000
opls_146-302    H    0.69361003    0.26628000    0.34832001    0.11580000
opls_146-303    H    0.30638997    0.73372000    0.84832001    0.11580000
opls_146-304    H    0.73229992    0.73539997    0.93055978    0.11940000
opls_146-305    H    0.26770008    0.26460003    0.43055978    0.11940000
opls_146-306    H    0.73229992    0.26460003    0.43055978    0.11940000
opls_146-307    H    0.26770008    0.73539997    0.93055978    0.11940000
opls_146-308    H    0.90179007    0.73861015    0.61179993    0.11310000
opls_146-309    H    0.09820993    0.26138985    0.11179993    0.11310000
opls_146-310    H    0.90179007    0.26138985    0.11179993    0.11310000
opls_146-311    H    0.09820993    0.73861015    0.61179993    0.11310000
opls_146-312    H    0.86207999    0.66530002    0.61684995    0.11570000
opls_146-313    H    0.13792001    0.33469998    0.11684995    0.11550000
opls_146-314    H    0.86207999    0.33469998    0.11684995    0.11550000
opls_146-315    H    0.13792001    0.66530002    0.61684995    0.11550000
opls_146-316    H    0.81974002    0.49318009    0.59285998    0.10800000
opls_146-317    H    0.18025998    0.50681991    0.09285998    0.10800000
opls_146-318    H    0.81974002    0.50681991    0.09285998    0.10800000
opls_146-319    H    0.18025998    0.49318009    0.59285998    0.10800000
opls_146-320    H    0.78348002    0.41577980    0.59013991    0.11550000
opls_146-321    H    0.21651998    0.58422020    0.09013991    0.11550000
opls_146-322    H    0.78348002    0.58422020    0.09013991    0.11550000
opls_146-323    H    0.21651998    0.41577980    0.59013991    0.11550000
opls_146-324    H    0.55988994    0.45858989    0.19783002    0.11830000
opls_146-325    H    0.44011006    0.54141011    0.69783002    0.11830000
opls_146-326    H    0.55988994    0.54141011    0.69783002    0.11830000
opls_146-327    H    0.44011006    0.45858989    0.19783002    0.11830000
opls_146-328    H    0.60015010    0.46290005    0.27736001    0.11770000
opls_146-329    H    0.39984990    0.53709995    0.77736001    0.11770000
opls_146-330    H    0.60015010    0.53709995    0.77736001    0.11770000
opls_146-331    H    0.39984990    0.46290005    0.27736001    0.11770000
opls_146-332    H    0.70023005    0.44827981    0.33850997    0.11540000
opls_146-333    H    0.29976995    0.55172019    0.83850997    0.11550000
opls_146-334    H    0.70023005    0.55172019    0.83850997    0.11540000
opls_146-335    H    0.29976995    0.44827981    0.33850997    0.11540000
opls_146-336    H    0.73881995    0.44787981    0.41973000    0.11400000
opls_146-337    H    0.26118005    0.55212019    0.91973000    0.11400000
opls_146-338    H    0.73881995    0.55212019    0.91973000    0.11400000
opls_146-339    H    0.26118005    0.44787981    0.41973000    0.11410000
opls_146-340    H    0.90377991    0.02376991    0.11398019    0.11490000
opls_146-341    H    0.09622009    0.97623009    0.61398019    0.11490000
opls_146-342    H    0.90377991    0.97623009    0.61398019    0.11510000
opls_146-343    H    0.09622009    0.02376991    0.11398019    0.11490000
opls_146-344    H    0.86473993    0.94915001    0.11938011    0.11730000
opls_146-345    H    0.13526007    0.05084999    0.61938011    0.11730000
opls_146-346    H    0.86473993    0.05084999    0.61938011    0.11730000
opls_146-347    H    0.13526007    0.94915001    0.11938011    0.11730000
opls_146-348    H    0.82774991    0.77105994    0.08966980    0.10800000
opls_146-349    H    0.17225009    0.22894006    0.58966980    0.10800000
opls_146-350    H    0.82774991    0.22894006    0.58966980    0.10800000
opls_146-351    H    0.17225009    0.77105994    0.08966980    0.10800000
opls_146-352    H    0.79137011    0.69312987    0.08764998    0.11400000
opls_146-353    H    0.20862989    0.30687013    0.58764998    0.11400000
opls_146-354    H    0.79137011    0.30687013    0.58764998    0.11400000
opls_146-355    H    0.20862989    0.69312987    0.08764998    0.11400000
opls_547-356    H    0.61306989    0.57925984    0.42641020    0.11150000
opls_547-357    H    0.38693011    0.42074016    0.92641020    0.11140000
opls_547-358    H    0.61306989    0.42074016    0.92641020    0.11140000
opls_547-359    H    0.38693011    0.57925984    0.42641020    0.11140000
opls_547-360    H    0.97075999    0.35940988    0.05781010    0.11550000
opls_547-361    H    0.02924001    0.64059012    0.55781010    0.11540000
opls_547-362    H    0.97075999    0.64059012    0.55781010    0.11540000
opls_547-363    H    0.02924001    0.35940988    0.05781010    0.11540000
opls_144-364    H    0.35673003    0.42096016    0.64572015    0.10290000
opls_144-365    H    0.64326997    0.57903984    0.14572015    0.10290000
opls_144-366    H    0.35673003    0.57903984    0.14572015    0.10290000
opls_144-367    H    0.64326997    0.42096016    0.64572015    0.10290000
opls_144-368    H    0.16334003    0.41920997    0.07535983    0.11310000
opls_144-369    H    0.83665997    0.58079003    0.57535983    0.11310000
opls_144-370    H    0.16334003    0.58079003    0.57535983    0.11310000
opls_144-371    H    0.83665997    0.41920997    0.07535983    0.11310000
opls_146-372    H    0.55657993    0.55192998    0.27349016    0.11830000
opls_146-373    H    0.44342007    0.44807002    0.77349016    0.11840000
opls_146-374    H    0.55657993    0.44807002    0.77349016    0.11830000
opls_146-375    H    0.44342007    0.55192998    0.27349016    0.11830000
opls_146-376    H    0.59497007    0.54931001    0.19031018    0.11560000
opls_146-377    H    0.40502993    0.45068999    0.69031018    0.11550000
opls_146-378    H    0.59497007    0.45068999    0.69031018    0.11550000
opls_146-379    H    0.40502993    0.54931001    0.19031018    0.11550000
opls_146-380    H    0.69106990    0.55462015    0.11782011    0.12000000
opls_146-381    H    0.30893010    0.44537985    0.61782011    0.12000000
opls_146-382    H    0.69106990    0.44537985    0.61782011    0.12010000
opls_146-383    H    0.30893010    0.55462015    0.11782011    0.12000000
opls_146-384    H    0.72993996    0.55460015    0.03726009    0.11940000
opls_146-385    H    0.27006004    0.44539985    0.53726009    0.11940000
opls_146-386    H    0.72993996    0.44539985    0.53726009    0.11940000
opls_146-387    H    0.27006004    0.55460015    0.03726009    0.11940000
opls_146-388    H    0.93320009    0.04055991    0.43573002    0.11320000
opls_146-389    H    0.06679991    0.95944009    0.93573002    0.11320000
opls_146-390    H    0.93320009    0.95944009    0.93573002    0.11320000
opls_146-391    H    0.06679991    0.04055991    0.43573002    0.11320000
opls_146-392    H    0.89402003    0.11531002    0.44070989    0.11710000
opls_146-393    H    0.10597997    0.88468998    0.94070989    0.11700000
opls_146-394    H    0.89402003    0.88468998    0.94070989    0.11700000
opls_146-395    H    0.10597997    0.11531002    0.44070989    0.11700000
opls_146-396    H    0.82300994    0.21517981    0.39003981    0.11710000
opls_146-397    H    0.17699006    0.78482019    0.89003981    0.11710000
opls_146-398    H    0.82300994    0.78482019    0.89003981    0.11710000
opls_146-399    H    0.17699006    0.21517981    0.39003981    0.11710000
opls_146-400    H    0.78672010    0.29412008    0.38679022    0.11550000
opls_146-401    H    0.21327990    0.70587992    0.88679022    0.11550000
opls_146-402    H    0.78672010    0.70587992    0.88679022    0.11550000
opls_146-403    H    0.21327990    0.29412008    0.38679022    0.11560000
opls_146-404    H    0.60545997    0.31261005    0.86427980    0.11480000
opls_146-405    H    0.39454003    0.68738995    0.36427980    0.11480000
opls_146-406    H    0.60545997    0.68738995    0.36427980    0.11480000
opls_146-407    H    0.39454003    0.31261005    0.86427980    0.11480000
opls_146-408    H    0.64439995    0.31625979    0.78174019    0.11680000
opls_146-409    H    0.35560005    0.68374021    0.28174019    0.11680000
opls_146-410    H    0.64439995    0.68374021    0.28174019    0.11680000
opls_146-411    H    0.35560005    0.31625979    0.78174019    0.11680000
opls_146-412    H    0.69882993    0.26394003    0.63578990    0.11780000
opls_146-413    H    0.30117007    0.73605997    0.13578990    0.11780000
opls_146-414    H    0.69882993    0.73605997    0.13578990    0.11780000
opls_146-415    H    0.30117007    0.26394003    0.63578990    0.11780000
opls_146-416    H    0.73790999    0.26274984    0.55459980    0.11400000
opls_146-417    H    0.26209001    0.73725016    0.05459980    0.11400000
opls_146-418    H    0.73790999    0.73725016    0.05459980    0.11400000
opls_146-419    H    0.26209001    0.26274984    0.55459980    0.11400000
opls_146-420    H    0.93477992    0.33360000    0.93990018    0.11320000
opls_146-421    H    0.06522008    0.66640000    0.43990018    0.11320000
opls_146-422    H    0.93477992    0.66640000    0.43990018    0.11320000
opls_146-423    H    0.06522008    0.33360000    0.93990018    0.11320000
opls_146-424    H    0.89507006    0.40731012    0.94480988    0.11700000
opls_146-425    H    0.10492994    0.59268988    0.44480988    0.11700000
opls_146-426    H    0.89507006    0.59268988    0.44480988    0.11700000
opls_146-427    H    0.10492994    0.40731012    0.94480988    0.11700000
opls_146-428    H    0.83051008    0.51667000    0.89381002    0.12000000
opls_146-429    H    0.16948992    0.48333000    0.39381002    0.12000000
opls_146-430    H    0.83051008    0.48333000    0.39381002    0.12000000
opls_146-431    H    0.16948992    0.51667000    0.89381002    0.12000000
opls_146-432    H    0.79395989    0.59554006    0.89007021    0.11580000
opls_146-433    H    0.20604011    0.40445994    0.39007021    0.11580000
opls_146-434    H    0.79395989    0.40445994    0.39007021    0.11580000
opls_146-435    H    0.20604011    0.59554006    0.89007021    0.11580000
opls_547-436    H    0.61312000    0.57653009    0.54686010    0.11140000
opls_547-437    H    0.38688000    0.42346991    0.04686010    0.11140000
opls_547-438    H    0.61312000    0.42346991    0.04686010    0.11140000
opls_547-439    H    0.38688000    0.57653009    0.54686010    0.11150000
opls_547-440    H    0.97075999    0.92930005    0.05492022    0.11780000
opls_547-441    H    0.02924001    0.07069995    0.55492022    0.11790000
opls_547-442    H    0.97075999    0.07069995    0.55492022    0.11790000
opls_547-443    H    0.02924001    0.92930005    0.05492022    0.11780000
opls_144-444    H    0.35070997    0.43186981    0.31909010    0.10380000
opls_144-445    H    0.64929003    0.56813019    0.81909010    0.10380000
opls_144-446    H    0.35070997    0.56813019    0.81909010    0.10380000
opls_144-447    H    0.64929003    0.43186981    0.31909010    0.10380000
opls_144-448    H    0.16007011    0.86386004    0.07756021    0.11250000
opls_144-449    H    0.83992989    0.13613996    0.57756021    0.11250000
opls_144-450    H    0.16007011    0.13613996    0.57756021    0.11260000
opls_144-451    H    0.83992989    0.86386004    0.07756021    0.11250000
opls_545-452    H    0.97488999    0.14457007    0.04345990    0.26090000
opls_545-453    H    0.02511001    0.85542993    0.54345990    0.26100000
opls_545-454    H    0.97488999    0.85542993    0.54345990    0.26090000
opls_545-455    H    0.02511001    0.14457007    0.04345990    0.26090000
opls_547-456    H    0.46997007    0.66857998    0.26318990    0.11720000
opls_547-457    H    0.53002993    0.33142002    0.76318990    0.11720000
opls_547-458    H    0.46997007    0.33142002    0.76318990    0.11720000
opls_547-459    H    0.53002993    0.66857998    0.26318990    0.11720000
opls_547-460    H    0.46996005    0.65452016    0.71650006    0.12070000
opls_547-461    H    0.53003995    0.34547984    0.21650006    0.12070000
opls_547-462    H    0.46996005    0.34547984    0.21650006    0.12070000
opls_547-463    H    0.53003995    0.65452016    0.71650006    0.12070000
opls_547-464    H    0.11183991    0.79902980    0.48476993    0.11200000
opls_547-465    H    0.88816009    0.20097020    0.98476993    0.11200000
opls_547-466    H    0.11183991    0.20097020    0.98476993    0.11200000
opls_547-467    H    0.88816009    0.79902980    0.48476993    0.11200000
opls_547-468    H    0.11183991    0.91171985    0.48463989    0.11430000
opls_547-469    H    0.88816009    0.08828015    0.98463989    0.11430000
opls_547-470    H    0.11183991    0.08828015    0.98463989    0.11440000
opls_547-471    H    0.88816009    0.91171985    0.48463989    0.11430000
opls_545-472    H    0.50000000    0.59724004    0.43430005    0.24810000
opls_545-473    H    0.50000000    0.40275996    0.93430005    0.24810000
opls_545-474    H    0.50000000    0.59510985    0.53998017    0.29200000
opls_545-475    H    0.50000000    0.40489015    0.03998017    0.29200000
opls_750-476    N    0.33022991    0.64395008    0.79339979    -0.35970000
opls_750-477    N    0.66977009    0.35604992    0.29339979    -0.35970000
opls_750-478    N    0.33022991    0.35604992    0.29339979    -0.35970000
opls_750-479    N    0.66977009    0.64395008    0.79339979    -0.35960000
opls_750-480    N    0.84852995    0.45864010    0.99222990    -0.35960000
opls_750-481    N    0.15147005    0.54135990    0.49222990    -0.35960000
opls_750-482    N    0.84852995    0.54135990    0.49222990    -0.35960000
opls_750-483    N    0.15147005    0.45864010    0.99222990    -0.35950000
opls_750-484    N    0.33176989    0.64769003    0.17807990    -0.35970000
opls_750-485    N    0.66823011    0.35230997    0.67807990    -0.35970000
opls_750-486    N    0.33176989    0.35230997    0.67807990    -0.35970000
opls_750-487    N    0.66823011    0.64769003    0.17807990    -0.35970000
opls_750-488    N    0.84821995    0.83166002    0.98905983    -0.35980000
opls_750-489    N    0.15178005    0.16833998    0.48905983    -0.35980000
opls_750-490    N    0.84821995    0.16833998    0.48905983    -0.35970000
opls_750-491    N    0.15178005    0.83166002    0.98905983    -0.35980000
opls_542-492    N    0.95332003    0.14459986    0.02441003    -0.25080000
opls_542-493    N    0.04667997    0.85540014    0.52441003    -0.25080000
opls_542-494    N    0.95332003    0.85540014    0.52441003    -0.25080000
opls_542-495    N    0.04667997    0.14459986    0.02441003    -0.25060000
opls_542-496    N    0.45325990    0.61924997    0.48791988    -0.34540000
opls_542-497    N    0.54674010    0.38075003    0.98791988    -0.34540000
opls_542-498    N    0.45325990    0.38075003    0.98791988    -0.34540000
opls_542-499    N    0.54674010    0.61924997    0.48791988    -0.34530000
opls_542-500    N    0.50000000    0.61918018    0.39225001    -0.25110000
opls_542-501    N    0.50000000    0.38081982    0.89225001    -0.25110000
opls_542-502    N    0.50000000    0.61369004    0.58391999    -0.25080000
opls_542-503    N    0.50000000    0.38630996    0.08391999    -0.25070000
opls_542-504    N    0.00000000    0.76751020    0.52112021    -0.34460000
opls_542-505    N    0.00000000    0.23248980    0.02112021    -0.34460000
opls_542-506    N    0.00000000    0.94319987    0.52073009    -0.33390000
opls_542-507    N    0.00000000    0.05680013    0.02073009    -0.33390000
