#======================================================================
# Crystal Data Generated By AuToFF
#----------------------------------------------------------------------

data_AuToFF_phase_1

_cell_length_a                         40.8123
_cell_length_b                         40.8123
_cell_length_c                         40.8123
_cell_angle_alpha                      90.00
_cell_angle_beta                       90.00
_cell_angle_gamma                      90.00
_symmetry_space_group_name_H-M_alt     'P 1'
_symmetry_space_group_IT_number        1

loop_
_space_group_symop_operation_xyz
   'x, y, z'

loop_
   _atom_site_label
   _atom_site_type_symbol
   _atom_site_fract_x
   _atom_site_fract_y
   _atom_site_fract_z
   _atom_site_charge
opls_750-0    N    0.26210995    0.33295012    0.94062991    -0.30770000
opls_750-1    N    0.23789005    0.66704988    0.44062991    -0.30770000
opls_750-2    N    0.73789005    0.83295012    0.55937009    -0.30770000
opls_750-3    N    0.76210995    0.16704988    0.05937009    -0.30770000
opls_750-4    N    0.94062991    0.26210995    0.33295012    -0.30770000
opls_750-5    N    0.44062991    0.23789005    0.66704988    -0.30770000
opls_750-6    N    0.55937009    0.73789005    0.83295012    -0.30770000
opls_750-7    N    0.05937009    0.76210995    0.16704988    -0.30770000
opls_750-8    N    0.83295012    0.55937009    0.73789005    -0.30770000
opls_750-9    N    0.16704988    0.05937009    0.76210995    -0.30770000
opls_750-10    N    0.33295012    0.94062991    0.26210995    -0.30770000
opls_750-11    N    0.66704988    0.44062991    0.23789005    -0.30760000
opls_750-12    N    0.58294999    0.51211007    0.19063003    -0.30760000
opls_750-13    N    0.91705001    0.48788993    0.69063003    -0.30770000
opls_750-14    N    0.08294999    0.98788993    0.80936997    -0.30770000
opls_750-15    N    0.41705001    0.01211007    0.30936997    -0.30770000
opls_750-16    N    0.51211007    0.19063003    0.58294999    -0.30770000
opls_750-17    N    0.48788993    0.69063003    0.91705001    -0.30770000
opls_750-18    N    0.98788993    0.80936997    0.08294999    -0.30770000
opls_750-19    N    0.01211007    0.30936997    0.41705001    -0.30770000
opls_750-20    N    0.80936997    0.08294999    0.98788993    -0.30770000
opls_750-21    N    0.30936997    0.41705001    0.01211007    -0.30770000
opls_750-22    N    0.19063003    0.58294999    0.51211007    -0.30770000
opls_750-23    N    0.69063003    0.91705001    0.48788993    -0.30770000
opls_750-24    N    0.73789005    0.16704988    0.94062991    -0.30770000
opls_750-25    N    0.76210995    0.83295012    0.44062991    -0.30770000
opls_750-26    N    0.26210995    0.66704988    0.55937009    -0.30770000
opls_750-27    N    0.23789005    0.33295012    0.05937009    -0.30770000
opls_750-28    N    0.05937009    0.23789005    0.33295012    -0.30770000
opls_750-29    N    0.55937009    0.26210995    0.66704988    -0.30770000
opls_750-30    N    0.44062991    0.76210995    0.83295012    -0.30770000
opls_750-31    N    0.94062991    0.73789005    0.16704988    -0.30770000
opls_750-32    N    0.16704988    0.94062991    0.73789005    -0.30770000
opls_750-33    N    0.83295012    0.44062991    0.76210995    -0.30770000
opls_750-34    N    0.66704988    0.55937009    0.26210995    -0.30770000
opls_750-35    N    0.33295012    0.05937009    0.23789005    -0.30770000
opls_750-36    N    0.91705001    0.51211007    0.80936997    -0.30770000
opls_750-37    N    0.58294999    0.48788993    0.30936997    -0.30760000
opls_750-38    N    0.41705001    0.98788993    0.19063003    -0.30770000
opls_750-39    N    0.08294999    0.01211007    0.69063003    -0.30770000
opls_750-40    N    0.98788993    0.19063003    0.41705001    -0.30770000
opls_750-41    N    0.01211007    0.69063003    0.08294999    -0.30770000
opls_750-42    N    0.51211007    0.80936997    0.91705001    -0.30770000
opls_750-43    N    0.48788993    0.30936997    0.58294999    -0.30770000
opls_750-44    N    0.69063003    0.08294999    0.01211007    -0.30760000
opls_750-45    N    0.19063003    0.41705001    0.98788993    -0.30770000
opls_750-46    N    0.30936997    0.58294999    0.48788993    -0.30770000
opls_750-47    N    0.80936997    0.91705001    0.51211007    -0.30770000
opls_142-48    C    0.24229999    0.31127993    0.92869993    0.08270000
opls_139-49    C    0.25571997    0.35301000    0.96955991    0.26390000
opls_136-50    C    0.62517011    0.47558996    0.21405998    -0.32690000
opls_700-51    C    0.25122010    0.70776996    0.60050009    0.05800000
opls_145-52    C    0.26747010    0.74499011    0.65595004    -0.23480000
opls_145-53    C    0.23086006    0.73323998    0.61084011    -0.12960000
opls_145-54    C    0.23896007    0.75179002    0.63827008    -0.05830000
opls_145-55    C    0.27978012    0.70097005    0.61822000    -0.13250000
opls_145-56    C    0.28777011    0.71936990    0.64577003    -0.05760000
opls_136-57    C    0.25000012    0.66870012    0.50000000    -0.32780000
opls_142-58    C    0.25770001    0.68872007    0.42869993    0.08270000
opls_139-59    C    0.24428003    0.64699000    0.46955991    0.26400000
opls_136-60    C    0.87482989    0.52441004    0.71405998    -0.32690000
opls_700-61    C    0.24877990    0.29223004    0.10050009    0.05800000
opls_145-62    C    0.23252990    0.25500989    0.15595004    -0.23480000
opls_145-63    C    0.26913994    0.26676002    0.11084011    -0.12960000
opls_145-64    C    0.26103993    0.24820998    0.13827008    -0.05830000
opls_145-65    C    0.22021988    0.29902995    0.11822000    -0.13250000
opls_145-66    C    0.21222989    0.28063010    0.14577003    -0.05760000
opls_136-67    C    0.25000012    0.33129988    0.00000000    -0.32780000
opls_142-68    C    0.75770001    0.81127993    0.57130007    0.08270000
opls_139-69    C    0.74428003    0.85301000    0.53044009    0.26390000
opls_136-70    C    0.37482989    0.97558996    0.28594002    -0.32690000
opls_700-71    C    0.74877990    0.20776996    0.89949991    0.05800000
opls_145-72    C    0.73252990    0.24499011    0.84404996    -0.23480000
opls_145-73    C    0.76913994    0.23323998    0.88915989    -0.12960000
opls_145-74    C    0.76103993    0.25179002    0.86172992    -0.05830000
opls_145-75    C    0.72021988    0.20097005    0.88178000    -0.13250000
opls_145-76    C    0.71222989    0.21936990    0.85422997    -0.05760000
opls_136-77    C    0.74999988    0.16870012    0.00000000    -0.32780000
opls_142-78    C    0.74229999    0.18872007    0.07130007    0.08270000
opls_139-79    C    0.75571997    0.14699000    0.03044009    0.26390000
opls_136-80    C    0.12517011    0.02441004    0.78594002    -0.32690000
opls_700-81    C    0.75122010    0.79223004    0.39949991    0.05800000
opls_145-82    C    0.76747010    0.75500989    0.34404996    -0.23480000
opls_145-83    C    0.73086006    0.76676002    0.38915989    -0.12960000
opls_145-84    C    0.73896007    0.74820998    0.36172992    -0.05830000
opls_145-85    C    0.77978012    0.79902995    0.38178000    -0.13250000
opls_145-86    C    0.78777011    0.78063010    0.35422997    -0.05760000
opls_136-87    C    0.74999988    0.83129988    0.50000000    -0.32780000
opls_142-88    C    0.92869993    0.24229999    0.31127993    0.08270000
opls_139-89    C    0.96955991    0.25571997    0.35301000    0.26390000
opls_136-90    C    0.21405998    0.62517011    0.47558996    -0.32690000
opls_700-91    C    0.60050009    0.25122010    0.70776996    0.05800000
opls_145-92    C    0.65595004    0.26747010    0.74499011    -0.23480000
opls_145-93    C    0.61084011    0.23086006    0.73323998    -0.12960000
opls_145-94    C    0.63827008    0.23896007    0.75179002    -0.05830000
opls_145-95    C    0.61822000    0.27978012    0.70097005    -0.13250000
opls_145-96    C    0.64577003    0.28777011    0.71936990    -0.05750000
opls_136-97    C    0.50000000    0.25000012    0.66870012    -0.32780000
opls_142-98    C    0.42869993    0.25770001    0.68872007    0.08270000
opls_139-99    C    0.46955991    0.24428003    0.64699000    0.26390000
opls_136-100    C    0.71405998    0.87482989    0.52441004    -0.32690000
opls_700-101    C    0.10050009    0.24877990    0.29223004    0.05800000
opls_145-102    C    0.15595004    0.23252990    0.25500989    -0.23480000
opls_145-103    C    0.11084011    0.26913994    0.26676002    -0.12960000
opls_145-104    C    0.13827008    0.26103993    0.24820998    -0.05830000
opls_145-105    C    0.11822000    0.22021988    0.29902995    -0.13250000
opls_145-106    C    0.14577003    0.21222989    0.28063010    -0.05760000
opls_136-107    C    0.00000000    0.25000012    0.33129988    -0.32780000
opls_142-108    C    0.57130007    0.75770001    0.81127993    0.08280000
opls_139-109    C    0.53044009    0.74428003    0.85301000    0.26390000
opls_136-110    C    0.28594002    0.37482989    0.97558996    -0.32690000
opls_700-111    C    0.89949991    0.74877990    0.20776996    0.05800000
opls_145-112    C    0.84404996    0.73252990    0.24499011    -0.23480000
opls_145-113    C    0.88915989    0.76913994    0.23323998    -0.12960000
opls_145-114    C    0.86172992    0.76103993    0.25179002    -0.05830000
opls_145-115    C    0.88178000    0.72021988    0.20097005    -0.13250000
opls_145-116    C    0.85422997    0.71222989    0.21936990    -0.05760000
opls_136-117    C    0.00000000    0.74999988    0.16870012    -0.32780000
opls_142-118    C    0.07130007    0.74229999    0.18872007    0.08270000
opls_139-119    C    0.03044009    0.75571997    0.14699000    0.26390000
opls_136-120    C    0.78594002    0.12517011    0.02441004    -0.32690000
opls_700-121    C    0.39949991    0.75122010    0.79223004    0.05800000
opls_145-122    C    0.34404996    0.76747010    0.75500989    -0.23480000
opls_145-123    C    0.38915989    0.73086006    0.76676002    -0.12960000
opls_145-124    C    0.36172992    0.73896007    0.74820998    -0.05820000
opls_145-125    C    0.38178000    0.77978012    0.79902995    -0.13250000
opls_145-126    C    0.35422997    0.78777011    0.78063010    -0.05760000
opls_136-127    C    0.50000000    0.74999988    0.83129988    -0.32780000
opls_142-128    C    0.81127993    0.57130007    0.75770001    0.08270000
opls_139-129    C    0.85301000    0.53044009    0.74428003    0.26390000
opls_136-130    C    0.97558996    0.28594002    0.37482989    -0.32690000
opls_700-131    C    0.20776996    0.89949991    0.74877990    0.05800000
opls_145-132    C    0.24499011    0.84404996    0.73252990    -0.23480000
opls_145-133    C    0.23323998    0.88915989    0.76913994    -0.12960000
opls_145-134    C    0.25179002    0.86172992    0.76103993    -0.05830000
opls_145-135    C    0.20097005    0.88178000    0.72021988    -0.13250000
opls_145-136    C    0.21936990    0.85422997    0.71222989    -0.05760000
opls_136-137    C    0.16870012    0.00000000    0.74999988    -0.32780000
opls_142-138    C    0.18872007    0.07130007    0.74229999    0.08270000
opls_139-139    C    0.14699000    0.03044009    0.75571997    0.26390000
opls_136-140    C    0.02441004    0.78594002    0.12517011    -0.32690000
opls_700-141    C    0.79223004    0.39949991    0.75122010    0.05800000
opls_145-142    C    0.75500989    0.34404996    0.76747010    -0.23480000
opls_145-143    C    0.76676002    0.38915989    0.73086006    -0.12960000
opls_145-144    C    0.74820998    0.36172992    0.73896007    -0.05830000
opls_145-145    C    0.79902995    0.38178000    0.77978012    -0.13250000
opls_145-146    C    0.78063010    0.35422997    0.78777011    -0.05760000
opls_136-147    C    0.83129988    0.50000000    0.74999988    -0.32780000
opls_142-148    C    0.31127993    0.92869993    0.24229999    0.08270000
opls_139-149    C    0.35301000    0.96955991    0.25571997    0.26390000
opls_136-150    C    0.47558996    0.21405998    0.62517011    -0.32690000
opls_700-151    C    0.70776996    0.60050009    0.25122010    0.05800000
opls_145-152    C    0.74499011    0.65595004    0.26747010    -0.23480000
opls_145-153    C    0.73323998    0.61084011    0.23086006    -0.12960000
opls_145-154    C    0.75179002    0.63827008    0.23896007    -0.05830000
opls_145-155    C    0.70097005    0.61822000    0.27978012    -0.13250000
opls_145-156    C    0.71936990    0.64577003    0.28777011    -0.05760000
opls_136-157    C    0.66870012    0.50000000    0.25000012    -0.32780000
opls_142-158    C    0.68872007    0.42869993    0.25770001    0.08270000
opls_139-159    C    0.64699000    0.46955991    0.24428003    0.26390000
opls_136-160    C    0.52441004    0.71405998    0.87482989    -0.32690000
opls_700-161    C    0.29223004    0.10050009    0.24877990    0.05800000
opls_145-162    C    0.25500989    0.15595004    0.23252990    -0.23480000
opls_145-163    C    0.26676002    0.11084011    0.26913994    -0.12960000
opls_145-164    C    0.24820998    0.13827008    0.26103993    -0.05830000
opls_145-165    C    0.29902995    0.11822000    0.22021988    -0.13250000
opls_145-166    C    0.28063010    0.14577003    0.21222989    -0.05760000
opls_136-167    C    0.33129988    0.00000000    0.25000012    -0.32780000
opls_142-168    C    0.56128006    0.49230012    0.17870005    0.08270000
opls_139-169    C    0.60301012    0.50572009    0.21956003    0.26390000
opls_136-170    C    0.72559008    0.87516999    0.46406010    -0.32690000
opls_700-171    C    0.95777008    0.50121998    0.85049997    0.06010000
opls_145-172    C    0.99498999    0.51746998    0.90594992    -0.23480000
opls_145-173    C    0.98324010    0.48085994    0.86083999    -0.12960000
opls_145-174    C    0.00178990    0.48895995    0.88826996    -0.05830000
opls_145-175    C    0.95096993    0.52977999    0.86822012    -0.13250000
opls_145-176    C    0.96937002    0.53776999    0.89576990    -0.05760000
opls_136-177    C    0.91870000    0.50000000    0.74999988    -0.32780000
opls_142-178    C    0.93871994    0.50769988    0.67870005    0.08270000
opls_139-179    C    0.89698988    0.49427991    0.71956003    0.26390000
opls_136-180    C    0.77440992    0.12483001    0.96406010    -0.32690000
opls_700-181    C    0.54222992    0.49878002    0.35049997    0.06010000
opls_145-182    C    0.50501001    0.48253002    0.40594992    -0.23480000
opls_145-183    C    0.51675990    0.51914006    0.36083999    -0.12960000
opls_145-184    C    0.49821010    0.51104005    0.38826996    -0.05830000
opls_145-185    C    0.54903007    0.47022001    0.36822012    -0.13250000
opls_145-186    C    0.53062998    0.46223001    0.39576990    -0.05760000
opls_136-187    C    0.58130000    0.50000000    0.25000012    -0.32780000
opls_142-188    C    0.06128006    0.00769988    0.82129995    0.08270000
opls_139-189    C    0.10301012    0.99427991    0.78043997    0.26390000
opls_136-190    C    0.22559008    0.62483001    0.53593990    -0.32690000
opls_700-191    C    0.45777008    0.99878002    0.14950003    0.06010000
opls_145-192    C    0.49498999    0.98253002    0.09405008    -0.23480000
opls_145-193    C    0.48324010    0.01914006    0.13916001    -0.12960000
opls_145-194    C    0.50178990    0.01104005    0.11173004    -0.05830000
opls_145-195    C    0.45096993    0.97022001    0.13177988    -0.13250000
opls_145-196    C    0.46937002    0.96223001    0.10423010    -0.05760000
opls_136-197    C    0.41870000    0.00000000    0.25000012    -0.32780000
opls_142-198    C    0.43871994    0.99230012    0.32129995    0.08270000
opls_139-199    C    0.39698988    0.00572009    0.28043997    0.26390000
opls_136-200    C    0.27440992    0.37516999    0.03593990    -0.32680000
opls_700-201    C    0.04222992    0.00121998    0.64950003    0.06010000
opls_145-202    C    0.00501001    0.01746998    0.59405008    -0.23480000
opls_145-203    C    0.01675990    0.98085994    0.63916001    -0.12960000
opls_145-204    C    0.99821010    0.98895995    0.61173004    -0.05830000
opls_145-205    C    0.04903007    0.02977999    0.63177988    -0.13250000
opls_145-206    C    0.03062998    0.03776999    0.60423010    -0.05760000
opls_136-207    C    0.08130000    0.00000000    0.74999988    -0.32780000
opls_142-208    C    0.49230012    0.17870005    0.56128006    0.08270000
opls_139-209    C    0.50572009    0.21956003    0.60301012    0.26390000
opls_136-210    C    0.87516999    0.46406010    0.72559008    -0.32690000
opls_700-211    C    0.50121998    0.85049997    0.95777008    0.06010000
opls_145-212    C    0.51746998    0.90594992    0.99498999    -0.23480000
opls_145-213    C    0.48085994    0.86083999    0.98324010    -0.12960000
opls_145-214    C    0.48895995    0.88826996    0.00178990    -0.05830000
opls_145-215    C    0.52977999    0.86822012    0.95096993    -0.13250000
opls_145-216    C    0.53776999    0.89576990    0.96937002    -0.05760000
opls_136-217    C    0.50000000    0.74999988    0.91870000    -0.32780000
opls_142-218    C    0.50769988    0.67870005    0.93871994    0.08270000
opls_139-219    C    0.49427991    0.71956003    0.89698988    0.26390000
opls_136-220    C    0.12483001    0.96406010    0.77440992    -0.32690000
opls_700-221    C    0.49878002    0.35049997    0.54222992    0.06010000
opls_145-222    C    0.48253002    0.40594992    0.50501001    -0.23480000
opls_145-223    C    0.51914006    0.36083999    0.51675990    -0.12960000
opls_145-224    C    0.51104005    0.38826996    0.49821010    -0.05830000
opls_145-225    C    0.47022001    0.36822012    0.54903007    -0.13250000
opls_145-226    C    0.46223001    0.39576990    0.53062998    -0.05760000
opls_136-227    C    0.50000000    0.25000012    0.58130000    -0.32780000
opls_142-228    C    0.00769988    0.82129995    0.06128006    0.08270000
opls_139-229    C    0.99427991    0.78043997    0.10301012    0.26390000
opls_136-230    C    0.62483001    0.53593990    0.22559008    -0.32690000
opls_700-231    C    0.99878002    0.14950003    0.45777008    0.06010000
opls_145-232    C    0.98253002    0.09405008    0.49498999    -0.23480000
opls_145-233    C    0.01914006    0.13916001    0.48324010    -0.12960000
opls_145-234    C    0.01104005    0.11173004    0.50178990    -0.05830000
opls_145-235    C    0.97022001    0.13177988    0.45096993    -0.13250000
opls_145-236    C    0.96223001    0.10423010    0.46937002    -0.05760000
opls_136-237    C    0.00000000    0.25000012    0.41870000    -0.32780000
opls_142-238    C    0.99230012    0.32129995    0.43871994    0.08270000
opls_139-239    C    0.00572009    0.28043997    0.39698988    0.26390000
opls_136-240    C    0.37516999    0.03593990    0.27440992    -0.32690000
opls_700-241    C    0.00121998    0.64950003    0.04222992    0.06010000
opls_145-242    C    0.01746998    0.59405008    0.00501001    -0.23480000
opls_145-243    C    0.98085994    0.63916001    0.01675990    -0.12960000
opls_145-244    C    0.98895995    0.61173004    0.99821010    -0.05830000
opls_145-245    C    0.02977999    0.63177988    0.04903007    -0.13250000
opls_145-246    C    0.03776999    0.60423010    0.03062998    -0.05760000
opls_136-247    C    0.00000000    0.74999988    0.08130000    -0.32780000
opls_142-248    C    0.82129995    0.06128006    0.00769988    0.08270000
opls_139-249    C    0.78043997    0.10301012    0.99427991    0.26390000
opls_136-250    C    0.53593990    0.22559008    0.62483001    -0.32690000
opls_700-251    C    0.14950003    0.45777008    0.99878002    0.06010000
opls_145-252    C    0.09405008    0.49498999    0.98253002    -0.23480000
opls_145-253    C    0.13916001    0.48324010    0.01914006    -0.12960000
opls_145-254    C    0.11173004    0.50178990    0.01104005    -0.05830000
opls_145-255    C    0.13177988    0.45096993    0.97022001    -0.13250000
opls_145-256    C    0.10423010    0.46937002    0.96223001    -0.05760000
opls_136-257    C    0.25000012    0.41870000    0.00000000    -0.32780000
opls_142-258    C    0.32129995    0.43871994    0.99230012    0.08270000
opls_139-259    C    0.28043997    0.39698988    0.00572009    0.26390000
opls_136-260    C    0.03593990    0.27440992    0.37516999    -0.32690000
opls_700-261    C    0.64950003    0.04222992    0.00121998    0.06010000
opls_145-262    C    0.59405008    0.00501001    0.01746998    -0.23480000
opls_145-263    C    0.63916001    0.01675990    0.98085994    -0.12950000
opls_145-264    C    0.61173004    0.99821010    0.98895995    -0.05830000
opls_145-265    C    0.63177988    0.04903007    0.02977999    -0.13250000
opls_145-266    C    0.60423010    0.03062998    0.03776999    -0.05760000
opls_136-267    C    0.74999988    0.08130000    0.00000000    -0.32780000
opls_142-268    C    0.17870005    0.56128006    0.49230012    0.08270000
opls_139-269    C    0.21956003    0.60301012    0.50572009    0.26390000
opls_136-270    C    0.46406010    0.72559008    0.87516999    -0.32690000
opls_700-271    C    0.85049997    0.95777008    0.50121998    0.06010000
opls_145-272    C    0.90594992    0.99498999    0.51746998    -0.23480000
opls_145-273    C    0.86083999    0.98324010    0.48085994    -0.12960000
opls_145-274    C    0.88826996    0.00178990    0.48895995    -0.05830000
opls_145-275    C    0.86822012    0.95096993    0.52977999    -0.13250000
opls_145-276    C    0.89576990    0.96937002    0.53776999    -0.05760000
opls_136-277    C    0.74999988    0.91870000    0.50000000    -0.32780000
opls_142-278    C    0.67870005    0.93871994    0.50769988    0.08270000
opls_139-279    C    0.71956003    0.89698988    0.49427991    0.26390000
opls_136-280    C    0.96406010    0.77440992    0.12483001    -0.32690000
opls_700-281    C    0.35049997    0.54222992    0.49878002    0.06010000
opls_145-282    C    0.40594992    0.50501001    0.48253002    -0.23480000
opls_145-283    C    0.36083999    0.51675990    0.51914006    -0.12960000
opls_145-284    C    0.38826996    0.49821010    0.51104005    -0.05830000
opls_145-285    C    0.36822012    0.54903007    0.47022001    -0.13250000
opls_145-286    C    0.39576990    0.53062998    0.46223001    -0.05760000
opls_136-287    C    0.25000012    0.58130000    0.50000000    -0.32780000
opls_142-288    C    0.75770001    0.18872007    0.92869993    0.08270000
opls_139-289    C    0.74428003    0.14699000    0.96955991    0.26390000
opls_136-290    C    0.37482989    0.02441004    0.21405998    -0.32690000
opls_700-291    C    0.74877990    0.79223004    0.60050009    0.05800000
opls_145-292    C    0.73252990    0.75500989    0.65595004    -0.23480000
opls_145-293    C    0.76913994    0.76676002    0.61084011    -0.12960000
opls_145-294    C    0.76103993    0.74820998    0.63827008    -0.05830000
opls_145-295    C    0.72021988    0.79902995    0.61822000    -0.13250000
opls_145-296    C    0.71222989    0.78063010    0.64577003    -0.05760000
opls_142-297    C    0.74229999    0.81127993    0.42869993    0.08270000
opls_139-298    C    0.75571997    0.85301000    0.46955991    0.26390000
opls_136-299    C    0.12517011    0.97558996    0.71405998    -0.32690000
opls_700-300    C    0.75122010    0.20776996    0.10050009    0.05800000
opls_145-301    C    0.76747010    0.24499011    0.15595004    -0.23480000
opls_145-302    C    0.73086006    0.23323998    0.11084011    -0.12960000
opls_145-303    C    0.73896007    0.25179002    0.13827008    -0.05830000
opls_145-304    C    0.77978012    0.20097005    0.11822000    -0.13250000
opls_145-305    C    0.78777011    0.21936990    0.14577003    -0.05760000
opls_142-306    C    0.24229999    0.68872007    0.57130007    0.08270000
opls_139-307    C    0.25571997    0.64699000    0.53044009    0.26390000
opls_136-308    C    0.62517011    0.52441004    0.28594002    -0.32690000
opls_700-309    C    0.25122010    0.29223004    0.89949991    0.05800000
opls_145-310    C    0.26747010    0.25500989    0.84404996    -0.23480000
opls_145-311    C    0.23086006    0.26676002    0.88915989    -0.12960000
opls_145-312    C    0.23896007    0.24820998    0.86172992    -0.05830000
opls_145-313    C    0.27978012    0.29902995    0.88178000    -0.13250000
opls_145-314    C    0.28777011    0.28063010    0.85422997    -0.05760000
opls_142-315    C    0.25770001    0.31127993    0.07130007    0.08270000
opls_139-316    C    0.24428003    0.35301000    0.03044009    0.26390000
opls_136-317    C    0.87482989    0.47558996    0.78594002    -0.32690000
opls_700-318    C    0.24877990    0.70776996    0.39949991    0.05800000
opls_145-319    C    0.23252990    0.74499011    0.34404996    -0.23480000
opls_145-320    C    0.26913994    0.73323998    0.38915989    -0.12960000
opls_145-321    C    0.26103993    0.75179002    0.36172992    -0.05830000
opls_145-322    C    0.22021988    0.70097005    0.38178000    -0.13250000
opls_145-323    C    0.21222989    0.71936990    0.35422997    -0.05760000
opls_142-324    C    0.07130007    0.25770001    0.31127993    0.08270000
opls_139-325    C    0.03044009    0.24428003    0.35301000    0.26390000
opls_136-326    C    0.78594002    0.87482989    0.47558996    -0.32690000
opls_700-327    C    0.39949991    0.24877990    0.70776996    0.05800000
opls_145-328    C    0.34404996    0.23252990    0.74499011    -0.23480000
opls_145-329    C    0.38915989    0.26913994    0.73323998    -0.12960000
opls_145-330    C    0.36172992    0.26103993    0.75179002    -0.05830000
opls_145-331    C    0.38178000    0.22021988    0.70097005    -0.13250000
opls_145-332    C    0.35422997    0.21222989    0.71936990    -0.05760000
opls_142-333    C    0.57130007    0.24229999    0.68872007    0.08270000
opls_139-334    C    0.53044009    0.25571997    0.64699000    0.26390000
opls_136-335    C    0.28594002    0.62517011    0.52441004    -0.32690000
opls_700-336    C    0.89949991    0.25122010    0.29223004    0.05800000
opls_145-337    C    0.84404996    0.26747010    0.25500989    -0.23480000
opls_145-338    C    0.88915989    0.23086006    0.26676002    -0.12960000
opls_145-339    C    0.86172992    0.23896007    0.24820998    -0.05830000
opls_145-340    C    0.88178000    0.27978012    0.29902995    -0.13250000
opls_145-341    C    0.85422997    0.28777011    0.28063010    -0.05760000
opls_142-342    C    0.42869993    0.74229999    0.81127993    0.08270000
opls_139-343    C    0.46955991    0.75571997    0.85301000    0.26390000
opls_136-344    C    0.71405998    0.12517011    0.97558996    -0.32690000
opls_700-345    C    0.10050009    0.75122010    0.20776996    0.05800000
opls_145-346    C    0.15595004    0.76747010    0.24499011    -0.23480000
opls_145-347    C    0.11084011    0.73086006    0.23323998    -0.12960000
opls_145-348    C    0.13827008    0.73896007    0.25179002    -0.05830000
opls_145-349    C    0.11822000    0.77978012    0.20097005    -0.13250000
opls_145-350    C    0.14577003    0.78777011    0.21936990    -0.05760000
opls_142-351    C    0.92869993    0.75770001    0.18872007    0.08270000
opls_139-352    C    0.96955991    0.74428003    0.14699000    0.26390000
opls_136-353    C    0.21405998    0.37482989    0.02441004    -0.32690000
opls_700-354    C    0.60050009    0.74877990    0.79223004    0.05800000
opls_145-355    C    0.65595004    0.73252990    0.75500989    -0.23480000
opls_145-356    C    0.61084011    0.76913994    0.76676002    -0.12960000
opls_145-357    C    0.63827008    0.76103993    0.74820998    -0.05830000
opls_145-358    C    0.61822000    0.72021988    0.79902995    -0.13250000
opls_145-359    C    0.64577003    0.71222989    0.78063010    -0.05760000
opls_142-360    C    0.18872007    0.92869993    0.75770001    0.08270000
opls_139-361    C    0.14699000    0.96955991    0.74428003    0.26390000
opls_136-362    C    0.02441004    0.21405998    0.37482989    -0.32690000
opls_700-363    C    0.79223004    0.60050009    0.74877990    0.05800000
opls_145-364    C    0.75500989    0.65595004    0.73252990    -0.23480000
opls_145-365    C    0.76676002    0.61084011    0.76913994    -0.12960000
opls_145-366    C    0.74820998    0.63827008    0.76103993    -0.05830000
opls_145-367    C    0.79902995    0.61822000    0.72021988    -0.13250000
opls_145-368    C    0.78063010    0.64577003    0.71222989    -0.05760000
opls_142-369    C    0.81127993    0.42869993    0.74229999    0.08270000
opls_139-370    C    0.85301000    0.46955991    0.75571997    0.26390000
opls_136-371    C    0.97558996    0.71405998    0.12517011    -0.32690000
opls_700-372    C    0.20776996    0.10050009    0.75122010    0.05800000
opls_145-373    C    0.24499011    0.15595004    0.76747010    -0.23480000
opls_145-374    C    0.23323998    0.11084011    0.73086006    -0.12960000
opls_145-375    C    0.25179002    0.13827008    0.73896007    -0.05830000
opls_145-376    C    0.20097005    0.11822000    0.77978012    -0.13250000
opls_145-377    C    0.21936990    0.14577003    0.78777011    -0.05760000
opls_142-378    C    0.68872007    0.57130007    0.24229999    0.08270000
opls_139-379    C    0.64699000    0.53044009    0.25571997    0.26390000
opls_136-380    C    0.52441004    0.28594002    0.62517011    -0.32690000
opls_700-381    C    0.29223004    0.89949991    0.25122010    0.05800000
opls_145-382    C    0.25500989    0.84404996    0.26747010    -0.23470000
opls_145-383    C    0.26676002    0.88915989    0.23086006    -0.12960000
opls_145-384    C    0.24820998    0.86172992    0.23896007    -0.05830000
opls_145-385    C    0.29902995    0.88178000    0.27978012    -0.13250000
opls_145-386    C    0.28063010    0.85422997    0.28777011    -0.05760000
opls_142-387    C    0.31127993    0.07130007    0.25770001    0.08270000
opls_139-388    C    0.35301000    0.03044009    0.24428003    0.26390000
opls_136-389    C    0.47558996    0.78594002    0.87482989    -0.32690000
opls_700-390    C    0.70776996    0.39949991    0.24877990    0.05800000
opls_145-391    C    0.74499011    0.34404996    0.23252990    -0.23480000
opls_145-392    C    0.73323998    0.38915989    0.26913994    -0.12960000
opls_145-393    C    0.75179002    0.36172992    0.26103993    -0.05830000
opls_145-394    C    0.70097005    0.38178000    0.22021988    -0.13250000
opls_145-395    C    0.71936990    0.35422997    0.21222989    -0.05760000
opls_142-396    C    0.93871994    0.49230012    0.82129995    0.08270000
opls_139-397    C    0.89698988    0.50572009    0.78043997    0.26390000
opls_136-398    C    0.77440992    0.87516999    0.53593990    -0.32690000
opls_700-399    C    0.54222992    0.50121998    0.14950003    0.06010000
opls_145-400    C    0.50501001    0.51746998    0.09405008    -0.23480000
opls_145-401    C    0.51675990    0.48085994    0.13916001    -0.12960000
opls_145-402    C    0.49821010    0.48895995    0.11173004    -0.05830000
opls_145-403    C    0.54903007    0.52977999    0.13177988    -0.13250000
opls_145-404    C    0.53062998    0.53776999    0.10423010    -0.05760000
opls_142-405    C    0.56128006    0.50769988    0.32129995    0.08270000
opls_139-406    C    0.60301012    0.49427991    0.28043997    0.26390000
opls_136-407    C    0.72559008    0.12483001    0.03593990    -0.32690000
opls_700-408    C    0.95777008    0.49878002    0.64950003    0.06010000
opls_145-409    C    0.99498999    0.48253002    0.59405008    -0.23480000
opls_145-410    C    0.98324010    0.51914006    0.63916001    -0.12960000
opls_145-411    C    0.00178990    0.51104005    0.61173004    -0.05830000
opls_145-412    C    0.95096993    0.47022001    0.63177988    -0.13250000
opls_145-413    C    0.96937002    0.46223001    0.60423010    -0.05760000
opls_142-414    C    0.43871994    0.00769988    0.17870005    0.08270000
opls_139-415    C    0.39698988    0.99427991    0.21956003    0.26400000
opls_136-416    C    0.27440992    0.62483001    0.46406010    -0.32690000
opls_700-417    C    0.04222992    0.99878002    0.85049997    0.06010000
opls_145-418    C    0.00501001    0.98253002    0.90594992    -0.23480000
opls_145-419    C    0.01675990    0.01914006    0.86083999    -0.12960000
opls_145-420    C    0.99821010    0.01104005    0.88826996    -0.05830000
opls_145-421    C    0.04903007    0.97022001    0.86822012    -0.13250000
opls_145-422    C    0.03062998    0.96223001    0.89576990    -0.05760000
opls_142-423    C    0.06128006    0.99230012    0.67870005    0.08270000
opls_139-424    C    0.10301012    0.00572009    0.71956003    0.26390000
opls_136-425    C    0.22559008    0.37516999    0.96406010    -0.32690000
opls_700-426    C    0.45777008    0.00121998    0.35049997    0.06010000
opls_145-427    C    0.49498999    0.01746998    0.40594992    -0.23480000
opls_145-428    C    0.48324010    0.98085994    0.36083999    -0.12960000
opls_145-429    C    0.50178990    0.98895995    0.38826996    -0.05830000
opls_145-430    C    0.45096993    0.02977999    0.36822012    -0.13250000
opls_145-431    C    0.46937002    0.03776999    0.39576990    -0.05760000
opls_142-432    C    0.00769988    0.17870005    0.43871994    0.08270000
opls_139-433    C    0.99427991    0.21956003    0.39698988    0.26390000
opls_136-434    C    0.62483001    0.46406010    0.27440992    -0.32690000
opls_700-435    C    0.99878002    0.85049997    0.04222992    0.06010000
opls_145-436    C    0.98253002    0.90594992    0.00501001    -0.23480000
opls_145-437    C    0.01914006    0.86083999    0.01675990    -0.12960000
opls_145-438    C    0.01104005    0.88826996    0.99821010    -0.05830000
opls_145-439    C    0.97022001    0.86822012    0.04903007    -0.13250000
opls_145-440    C    0.96223001    0.89576990    0.03062998    -0.05760000
opls_142-441    C    0.99230012    0.67870005    0.06128006    0.08270000
opls_139-442    C    0.00572009    0.71956003    0.10301012    0.26390000
opls_136-443    C    0.37516999    0.96406010    0.22559008    -0.32690000
opls_700-444    C    0.00121998    0.35049997    0.45777008    0.06010000
opls_145-445    C    0.01746998    0.40594992    0.49498999    -0.23480000
opls_145-446    C    0.98085994    0.36083999    0.48324010    -0.12960000
opls_145-447    C    0.98895995    0.38826996    0.50178990    -0.05830000
opls_145-448    C    0.02977999    0.36822012    0.45096993    -0.13250000
opls_145-449    C    0.03776999    0.39576990    0.46937002    -0.05760000
opls_142-450    C    0.49230012    0.82129995    0.93871994    0.08270000
opls_139-451    C    0.50572009    0.78043997    0.89698988    0.26390000
opls_136-452    C    0.87516999    0.53593990    0.77440992    -0.32690000
opls_700-453    C    0.50121998    0.14950003    0.54222992    0.06020000
opls_145-454    C    0.51746998    0.09405008    0.50501001    -0.23480000
opls_145-455    C    0.48085994    0.13916001    0.51675990    -0.12960000
opls_145-456    C    0.48895995    0.11173004    0.49821010    -0.05830000
opls_145-457    C    0.52977999    0.13177988    0.54903007    -0.13250000
opls_145-458    C    0.53776999    0.10423010    0.53062998    -0.05760000
opls_142-459    C    0.50769988    0.32129995    0.56128006    0.08270000
opls_139-460    C    0.49427991    0.28043997    0.60301012    0.26390000
opls_136-461    C    0.12483001    0.03593990    0.72559008    -0.32690000
opls_700-462    C    0.49878002    0.64950003    0.95777008    0.06010000
opls_145-463    C    0.48253002    0.59405008    0.99498999    -0.23480000
opls_145-464    C    0.51914006    0.63916001    0.98324010    -0.12960000
opls_145-465    C    0.51104005    0.61173004    0.00178990    -0.05820000
opls_145-466    C    0.47022001    0.63177988    0.95096993    -0.13250000
opls_145-467    C    0.46223001    0.60423010    0.96937002    -0.05760000
opls_142-468    C    0.67870005    0.06128006    0.99230012    0.08270000
opls_139-469    C    0.71956003    0.10301012    0.00572009    0.26390000
opls_136-470    C    0.96406010    0.22559008    0.37516999    -0.32690000
opls_700-471    C    0.35049997    0.45777008    0.00121998    0.06010000
opls_145-472    C    0.40594992    0.49498999    0.01746998    -0.23480000
opls_145-473    C    0.36083999    0.48324010    0.98085994    -0.12960000
opls_145-474    C    0.38826996    0.50178990    0.98895995    -0.05830000
opls_145-475    C    0.36822012    0.45096993    0.02977999    -0.13250000
opls_145-476    C    0.39576990    0.46937002    0.03776999    -0.05760000
opls_142-477    C    0.17870005    0.43871994    0.00769988    0.08270000
opls_139-478    C    0.21956003    0.39698988    0.99427991    0.26390000
opls_136-479    C    0.46406010    0.27440992    0.62483001    -0.32690000
opls_700-480    C    0.85049997    0.04222992    0.99878002    0.06010000
opls_145-481    C    0.90594992    0.00501001    0.98253002    -0.23480000
opls_145-482    C    0.86083999    0.01675990    0.01914006    -0.12950000
opls_145-483    C    0.88826996    0.99821010    0.01104005    -0.05820000
opls_145-484    C    0.86822012    0.04903007    0.97022001    -0.13250000
opls_145-485    C    0.89576990    0.03062998    0.96223001    -0.05760000
opls_142-486    C    0.32129995    0.56128006    0.50769988    0.08270000
opls_139-487    C    0.28043997    0.60301012    0.49427991    0.26390000
opls_136-488    C    0.03593990    0.72559008    0.12483001    -0.32690000
opls_700-489    C    0.64950003    0.95777008    0.49878002    0.06010000
opls_145-490    C    0.59405008    0.99498999    0.48253002    -0.23480000
opls_145-491    C    0.63916001    0.98324010    0.51914006    -0.12960000
opls_145-492    C    0.61173004    0.00178990    0.51104005    -0.05830000
opls_145-493    C    0.63177988    0.95096993    0.47022001    -0.13250000
opls_145-494    C    0.60423010    0.96937002    0.46223001    -0.05760000
opls_142-495    C    0.82129995    0.93871994    0.49230012    0.08270000
opls_139-496    C    0.78043997    0.89698988    0.50572009    0.26390000
opls_136-497    C    0.53593990    0.77440992    0.87516999    -0.32690000
opls_700-498    C    0.14950003    0.54222992    0.50121998    0.06010000
opls_145-499    C    0.09405008    0.50501001    0.51746998    -0.23480000
opls_145-500    C    0.13916001    0.51675990    0.48085994    -0.12960000
opls_145-501    C    0.11173004    0.49821010    0.48895995    -0.05830000
opls_145-502    C    0.13177988    0.54903007    0.52977999    -0.13250000
opls_145-503    C    0.10423010    0.53062998    0.53776999    -0.05760000
MOF2_B_2-504    B    0.27663008    0.23413995    0.81334010    0.72210000
MOF2_B_2-505    B    0.22336992    0.76586005    0.31334010    0.72200000
MOF2_B_2-506    B    0.72336992    0.73413995    0.68665990    0.72210000
MOF2_B_2-507    B    0.77663008    0.26586005    0.18665990    0.72200000
MOF2_B_2-508    B    0.81334010    0.27663008    0.23413995    0.72200000
MOF2_B_2-509    B    0.31334010    0.22336992    0.76586005    0.72200000
MOF2_B_2-510    B    0.68665990    0.72336992    0.73413995    0.72200000
MOF2_B_2-511    B    0.18665990    0.77663008    0.26586005    0.72200000
MOF2_B_2-512    B    0.73413995    0.68665990    0.72336992    0.72200000
MOF2_B_2-513    B    0.26586005    0.18665990    0.77663008    0.72200000
MOF2_B_2-514    B    0.23413995    0.81334010    0.27663008    0.72200000
MOF2_B_2-515    B    0.76586005    0.31334010    0.22336992    0.72200000
MOF2_B_2-516    B    0.48414008    0.52662996    0.06333997    0.72200000
MOF2_B_2-517    B    0.01585992    0.47337004    0.56333997    0.72200000
MOF2_B_2-518    B    0.98414008    0.97337004    0.93666003    0.72200000
MOF2_B_2-519    B    0.51585992    0.02662996    0.43666003    0.72200000
MOF2_B_2-520    B    0.52662996    0.06333997    0.48414008    0.72200000
MOF2_B_2-521    B    0.47337004    0.56333997    0.01585992    0.72200000
MOF2_B_2-522    B    0.97337004    0.93666003    0.98414008    0.72210000
MOF2_B_2-523    B    0.02662996    0.43666003    0.51585992    0.72200000
MOF2_B_2-524    B    0.93666003    0.98414008    0.97337004    0.72210000
MOF2_B_2-525    B    0.43666003    0.51585992    0.02662996    0.72200000
MOF2_B_2-526    B    0.06333997    0.48414008    0.52662996    0.72200000
MOF2_B_2-527    B    0.56333997    0.01585992    0.47337004    0.72200000
MOF2_B_2-528    B    0.72336992    0.26586005    0.81334010    0.72210000
MOF2_B_2-529    B    0.77663008    0.73413995    0.31334010    0.72210000
MOF2_B_2-530    B    0.27663008    0.76586005    0.68665990    0.72200000
MOF2_B_2-531    B    0.22336992    0.23413995    0.18665990    0.72200000
MOF2_B_2-532    B    0.18665990    0.22336992    0.23413995    0.72200000
MOF2_B_2-533    B    0.68665990    0.27663008    0.76586005    0.72200000
MOF2_B_2-534    B    0.31334010    0.77663008    0.73413995    0.72220000
MOF2_B_2-535    B    0.81334010    0.72336992    0.26586005    0.72200000
MOF2_B_2-536    B    0.26586005    0.81334010    0.72336992    0.72200000
MOF2_B_2-537    B    0.73413995    0.31334010    0.77663008    0.72200000
MOF2_B_2-538    B    0.76586005    0.68665990    0.27663008    0.72200000
MOF2_B_2-539    B    0.23413995    0.18665990    0.22336992    0.72200000
MOF2_B_2-540    B    0.01585992    0.52662996    0.93666003    0.72200000
MOF2_B_2-541    B    0.48414008    0.47337004    0.43666003    0.72200000
MOF2_B_2-542    B    0.51585992    0.97337004    0.06333997    0.72200000
MOF2_B_2-543    B    0.98414008    0.02662996    0.56333997    0.72210000
MOF2_B_2-544    B    0.97337004    0.06333997    0.51585992    0.72200000
MOF2_B_2-545    B    0.02662996    0.56333997    0.98414008    0.72200000
MOF2_B_2-546    B    0.52662996    0.93666003    0.01585992    0.72210000
MOF2_B_2-547    B    0.47337004    0.43666003    0.48414008    0.72220000
MOF2_B_2-548    B    0.56333997    0.98414008    0.02662996    0.72200000
MOF2_B_2-549    B    0.06333997    0.51585992    0.97337004    0.72200000
MOF2_B_2-550    B    0.43666003    0.48414008    0.47337004    0.72200000
MOF2_B_2-551    B    0.93666003    0.01585992    0.52662996    0.72200000
opls_180-552    O    0.29412996    0.80519990    0.74355991    -0.59490000
opls_180-553    O    0.20587004    0.19480010    0.24355991    -0.59490000
opls_180-554    O    0.70587004    0.30519990    0.75644009    -0.59480000
opls_180-555    O    0.79412996    0.69480010    0.25644009    -0.59490000
opls_180-556    O    0.74355991    0.29412996    0.80519990    -0.59480000
opls_180-557    O    0.24355991    0.20587004    0.19480010    -0.59490000
opls_180-558    O    0.75644009    0.70587004    0.30519990    -0.59490000
opls_180-559    O    0.25644009    0.79412996    0.69480010    -0.59490000
opls_180-560    O    0.30519990    0.75644009    0.70587004    -0.59490000
opls_180-561    O    0.69480010    0.25644009    0.79412996    -0.59490000
opls_180-562    O    0.80519990    0.74355991    0.29412996    -0.59480000
opls_180-563    O    0.19480010    0.24355991    0.20587004    -0.59490000
opls_180-564    O    0.05520003    0.54413008    0.99356003    -0.59480000
opls_180-565    O    0.44479997    0.45586992    0.49356003    -0.59490000
opls_180-566    O    0.55520003    0.95586992    0.00643997    -0.59490000
opls_180-567    O    0.94479997    0.04413008    0.50643997    -0.59480000
opls_180-568    O    0.54413008    0.99356003    0.05520003    -0.59490000
opls_180-569    O    0.45586992    0.49356003    0.44479997    -0.59490000
opls_180-570    O    0.95586992    0.00643997    0.55520003    -0.59490000
opls_180-571    O    0.04413008    0.50643997    0.94479997    -0.59490000
opls_180-572    O    0.00643997    0.55520003    0.95586992    -0.59480000
opls_180-573    O    0.50643997    0.94479997    0.04413008    -0.59490000
opls_180-574    O    0.99356003    0.05520003    0.54413008    -0.59490000
opls_180-575    O    0.49356003    0.44479997    0.45586992    -0.59490000
opls_180-576    O    0.70587004    0.69480010    0.74355991    -0.59490000
opls_180-577    O    0.79412996    0.30519990    0.24355991    -0.59490000
opls_180-578    O    0.29412996    0.19480010    0.75644009    -0.59480000
opls_180-579    O    0.20587004    0.80519990    0.25644009    -0.59490000
opls_180-580    O    0.25644009    0.20587004    0.80519990    -0.59490000
opls_180-581    O    0.75644009    0.29412996    0.19480010    -0.59490000
opls_180-582    O    0.24355991    0.79412996    0.30519990    -0.59490000
opls_180-583    O    0.74355991    0.70587004    0.69480010    -0.59490000
opls_180-584    O    0.69480010    0.74355991    0.70587004    -0.59490000
opls_180-585    O    0.30519990    0.24355991    0.79412996    -0.59490000
opls_180-586    O    0.19480010    0.75644009    0.29412996    -0.59490000
opls_180-587    O    0.80519990    0.25644009    0.20587004    -0.59490000
opls_180-588    O    0.44479997    0.54413008    0.00643997    -0.59490000
opls_180-589    O    0.05520003    0.45586992    0.50643997    -0.59490000
opls_180-590    O    0.94479997    0.95586992    0.99356003    -0.59490000
opls_180-591    O    0.55520003    0.04413008    0.49356003    -0.59490000
opls_180-592    O    0.95586992    0.99356003    0.94479997    -0.59490000
opls_180-593    O    0.04413008    0.49356003    0.55520003    -0.59490000
opls_180-594    O    0.54413008    0.00643997    0.44479997    -0.59490000
opls_180-595    O    0.45586992    0.50643997    0.05520003    -0.59490000
opls_180-596    O    0.49356003    0.55520003    0.04413008    -0.59490000
opls_180-597    O    0.99356003    0.94479997    0.95586992    -0.59480000
opls_180-598    O    0.50643997    0.05520003    0.45586992    -0.59490000
opls_180-599    O    0.00643997    0.44479997    0.54413008    -0.59470000
opls_140-600    H    0.64065000    0.47946011    0.19209993    0.12690000
opls_140-601    H    0.61004991    0.45356008    0.20939006    0.11240000
opls_140-602    H    0.93476991    0.52153003    0.74635000    0.10520000
opls_144-603    H    0.21903005    0.30668009    0.94033000    0.09910000
opls_146-604    H    0.20874001    0.73890004    0.59757010    0.11500000
opls_146-605    H    0.22282988    0.77139000    0.64558993    0.09740000
opls_146-606    H    0.29591006    0.68141002    0.61085996    0.11580000
opls_146-607    H    0.30992005    0.71359002    0.65895012    0.10970000
opls_140-608    H    0.85935000    0.52053989    0.69209993    0.12690000
opls_140-609    H    0.88995009    0.54643992    0.70939006    0.11240000
opls_140-610    H    0.56523009    0.47846997    0.24635000    0.10520000
opls_144-611    H    0.28096995    0.69331991    0.44033000    0.09910000
opls_146-612    H    0.29125999    0.26109996    0.09757010    0.11500000
opls_146-613    H    0.27717012    0.22861000    0.14558993    0.09740000
opls_146-614    H    0.20408994    0.31858998    0.11085996    0.11580000
opls_146-615    H    0.19007995    0.28640998    0.15895012    0.10970000
opls_140-616    H    0.35935000    0.97946011    0.30790007    0.12690000
opls_140-617    H    0.38995009    0.95356008    0.29060994    0.11240000
opls_140-618    H    0.06523009    0.02153003    0.75365000    0.10530000
opls_144-619    H    0.78096995    0.80668009    0.55967000    0.09910000
opls_146-620    H    0.79125999    0.23890004    0.90242990    0.11500000
opls_146-621    H    0.77717012    0.27139000    0.85441007    0.09740000
opls_146-622    H    0.70408994    0.18141002    0.88914004    0.11580000
opls_146-623    H    0.69007995    0.21359002    0.84104988    0.10970000
opls_140-624    H    0.14065000    0.02053989    0.80790007    0.12690000
opls_140-625    H    0.11004991    0.04643992    0.79060994    0.11240000
opls_140-626    H    0.43476991    0.97846997    0.25365000    0.10520000
opls_144-627    H    0.71903005    0.19331991    0.05967000    0.09910000
opls_146-628    H    0.70874001    0.76109996    0.40242990    0.11500000
opls_146-629    H    0.72282988    0.72861000    0.35441007    0.09740000
opls_146-630    H    0.79591006    0.81858998    0.38914004    0.11580000
opls_146-631    H    0.80992005    0.78640998    0.34104988    0.10980000
opls_140-632    H    0.19209993    0.64065000    0.47946011    0.12690000
opls_140-633    H    0.20939006    0.61004991    0.45356008    0.11240000
opls_140-634    H    0.74635000    0.93476991    0.52153003    0.10520000
opls_144-635    H    0.94033000    0.21903005    0.30668009    0.09910000
opls_146-636    H    0.59757010    0.20874001    0.73890004    0.11500000
opls_146-637    H    0.64558993    0.22282988    0.77139000    0.09740000
opls_146-638    H    0.61085996    0.29591006    0.68141002    0.11580000
opls_146-639    H    0.65895012    0.30992005    0.71359002    0.10970000
opls_140-640    H    0.69209993    0.85935000    0.52053989    0.12690000
opls_140-641    H    0.70939006    0.88995009    0.54643992    0.11240000
opls_140-642    H    0.24635000    0.56523009    0.47846997    0.10520000
opls_144-643    H    0.44033000    0.28096995    0.69331991    0.09910000
opls_146-644    H    0.09757010    0.29125999    0.26109996    0.11500000
opls_146-645    H    0.14558993    0.27717012    0.22861000    0.09740000
opls_146-646    H    0.11085996    0.20408994    0.31858998    0.11580000
opls_146-647    H    0.15895012    0.19007995    0.28640998    0.10970000
opls_140-648    H    0.30790007    0.35935000    0.97946011    0.12690000
opls_140-649    H    0.29060994    0.38995009    0.95356008    0.11240000
opls_140-650    H    0.75365000    0.06523009    0.02153003    0.10520000
opls_144-651    H    0.55967000    0.78096995    0.80668009    0.09910000
opls_146-652    H    0.90242990    0.79125999    0.23890004    0.11500000
opls_146-653    H    0.85441007    0.77717012    0.27139000    0.09740000
opls_146-654    H    0.88914004    0.70408994    0.18141002    0.11580000
opls_146-655    H    0.84104988    0.69007995    0.21359002    0.10970000
opls_140-656    H    0.80790007    0.14065000    0.02053989    0.12690000
opls_140-657    H    0.79060994    0.11004991    0.04643992    0.11240000
opls_140-658    H    0.25365000    0.43476991    0.97846997    0.10520000
opls_144-659    H    0.05967000    0.71903005    0.19331991    0.09910000
opls_146-660    H    0.40242990    0.70874001    0.76109996    0.11500000
opls_146-661    H    0.35441007    0.72282988    0.72861000    0.09740000
opls_146-662    H    0.38914004    0.79591006    0.81858998    0.11580000
opls_146-663    H    0.34104988    0.80992005    0.78640998    0.10970000
opls_140-664    H    0.97946011    0.30790007    0.35935000    0.12690000
opls_140-665    H    0.95356008    0.29060994    0.38995009    0.11240000
opls_140-666    H    0.02153003    0.75365000    0.06523009    0.10520000
opls_144-667    H    0.80668009    0.55967000    0.78096995    0.09910000
opls_146-668    H    0.23890004    0.90242990    0.79125999    0.11500000
opls_146-669    H    0.27139000    0.85441007    0.77717012    0.09740000
opls_146-670    H    0.18141002    0.88914004    0.70408994    0.11580000
opls_146-671    H    0.21359002    0.84104988    0.69007995    0.10970000
opls_140-672    H    0.02053989    0.80790007    0.14065000    0.12690000
opls_140-673    H    0.04643992    0.79060994    0.11004991    0.11240000
opls_140-674    H    0.97846997    0.25365000    0.43476991    0.10520000
opls_144-675    H    0.19331991    0.05967000    0.71903005    0.09910000
opls_146-676    H    0.76109996    0.40242990    0.70874001    0.11500000
opls_146-677    H    0.72861000    0.35441007    0.72282988    0.09740000
opls_146-678    H    0.81858998    0.38914004    0.79591006    0.11580000
opls_146-679    H    0.78640998    0.34104988    0.80992005    0.10970000
opls_140-680    H    0.47946011    0.19209993    0.64065000    0.12690000
opls_140-681    H    0.45356008    0.20939006    0.61004991    0.11240000
opls_140-682    H    0.52153003    0.74635000    0.93476991    0.10520000
opls_144-683    H    0.30668009    0.94033000    0.21903005    0.09910000
opls_146-684    H    0.73890004    0.59757010    0.20874001    0.11500000
opls_146-685    H    0.77139000    0.64558993    0.22282988    0.09740000
opls_146-686    H    0.68141002    0.61085996    0.29591006    0.11580000
opls_146-687    H    0.71359002    0.65895012    0.30992005    0.10970000
opls_140-688    H    0.52053989    0.69209993    0.85935000    0.12690000
opls_140-689    H    0.54643992    0.70939006    0.88995009    0.11250000
opls_140-690    H    0.47846997    0.24635000    0.56523009    0.10520000
opls_144-691    H    0.69331991    0.44033000    0.28096995    0.09910000
opls_146-692    H    0.26109996    0.09757010    0.29125999    0.11500000
opls_146-693    H    0.22861000    0.14558993    0.27717012    0.09740000
opls_146-694    H    0.31858998    0.11085996    0.20408994    0.11580000
opls_146-695    H    0.28640998    0.15895012    0.19007995    0.10970000
opls_140-696    H    0.72945999    0.89064988    0.44210005    0.12690000
opls_140-697    H    0.70355996    0.86005003    0.45938994    0.11240000
opls_140-698    H    0.77152991    0.18477003    0.99635012    0.10520000
opls_144-699    H    0.55667997    0.46902992    0.19033012    0.09910000
opls_146-700    H    0.98889991    0.45873989    0.84756997    0.11500000
opls_146-701    H    0.02139012    0.47283000    0.89559005    0.09740000
opls_146-702    H    0.93140989    0.54590993    0.86086008    0.11580000
opls_146-703    H    0.96358990    0.55991993    0.90895000    0.10360000
opls_140-704    H    0.77054001    0.10935012    0.94210005    0.12690000
opls_140-705    H    0.79644004    0.13994997    0.95938994    0.11240000
opls_140-706    H    0.72847009    0.81522997    0.49635012    0.10520000
opls_144-707    H    0.94332003    0.53097008    0.69033012    0.09910000
opls_146-708    H    0.51110009    0.54126011    0.34756997    0.11500000
opls_146-709    H    0.47860988    0.52717000    0.39559005    0.09740000
opls_146-710    H    0.56859011    0.45409007    0.36086008    0.11580000
opls_146-711    H    0.53641010    0.44008007    0.40895000    0.10360000
opls_140-712    H    0.22945999    0.60934988    0.55789995    0.12690000
opls_140-713    H    0.20355996    0.63994997    0.54061006    0.11240000
opls_140-714    H    0.27152991    0.31522997    0.00364988    0.10520000
opls_144-715    H    0.05667997    0.03097008    0.80966988    0.09910000
opls_146-716    H    0.48889991    0.04126011    0.15243003    0.11500000
opls_146-717    H    0.52139012    0.02717000    0.10440995    0.09740000
opls_146-718    H    0.43140989    0.95409007    0.13913992    0.11580000
opls_146-719    H    0.46358990    0.94008007    0.09105000    0.10360000
opls_140-720    H    0.27054001    0.39064988    0.05789995    0.12690000
opls_140-721    H    0.29644004    0.36005003    0.04061006    0.11240000
opls_140-722    H    0.22847009    0.68477003    0.50364988    0.10520000
opls_144-723    H    0.44332003    0.96902992    0.30966988    0.09910000
opls_146-724    H    0.01110009    0.95873989    0.65243003    0.11500000
opls_146-725    H    0.97860988    0.97283000    0.60440995    0.09740000
opls_146-726    H    0.06859011    0.04590993    0.63913992    0.11580000
opls_146-727    H    0.03641010    0.05991993    0.59105000    0.10360000
opls_140-728    H    0.89064988    0.44210005    0.72945999    0.12690000
opls_140-729    H    0.86005003    0.45938994    0.70355996    0.11240000
opls_140-730    H    0.18477003    0.99635012    0.77152991    0.10520000
opls_144-731    H    0.46902992    0.19033012    0.55667997    0.09910000
opls_146-732    H    0.45873989    0.84756997    0.98889991    0.11500000
opls_146-733    H    0.47283000    0.89559005    0.02139012    0.09740000
opls_146-734    H    0.54590993    0.86086008    0.93140989    0.11580000
opls_146-735    H    0.55991993    0.90895000    0.96358990    0.10360000
opls_140-736    H    0.10935012    0.94210005    0.77054001    0.12690000
opls_140-737    H    0.13994997    0.95938994    0.79644004    0.11240000
opls_140-738    H    0.81522997    0.49635012    0.72847009    0.10520000
opls_144-739    H    0.53097008    0.69033012    0.94332003    0.09910000
opls_146-740    H    0.54126011    0.34756997    0.51110009    0.11500000
opls_146-741    H    0.52717000    0.39559005    0.47860988    0.09740000
opls_146-742    H    0.45409007    0.36086008    0.56859011    0.11580000
opls_146-743    H    0.44008007    0.40895000    0.53641010    0.10360000
opls_140-744    H    0.60934988    0.55789995    0.22945999    0.12690000
opls_140-745    H    0.63994997    0.54061006    0.20355996    0.11240000
opls_140-746    H    0.31522997    0.00364988    0.27152991    0.10520000
opls_144-747    H    0.03097008    0.80966988    0.05667997    0.09910000
opls_146-748    H    0.04126011    0.15243003    0.48889991    0.11500000
opls_146-749    H    0.02717000    0.10440995    0.52139012    0.09740000
opls_146-750    H    0.95409007    0.13913992    0.43140989    0.11580000
opls_146-751    H    0.94008007    0.09105000    0.46358990    0.10360000
opls_140-752    H    0.39064988    0.05789995    0.27054001    0.12690000
opls_140-753    H    0.36005003    0.04061006    0.29644004    0.11240000
opls_140-754    H    0.68477003    0.50364988    0.22847009    0.10520000
opls_144-755    H    0.96902992    0.30966988    0.44332003    0.09920000
opls_146-756    H    0.95873989    0.65243003    0.01110009    0.11500000
opls_146-757    H    0.97283000    0.60440995    0.97860988    0.09740000
opls_146-758    H    0.04590993    0.63913992    0.06859011    0.11580000
opls_146-759    H    0.05991993    0.59105000    0.03641010    0.10360000
opls_140-760    H    0.55789995    0.22945999    0.60934988    0.12690000
opls_140-761    H    0.54061006    0.20355996    0.63994997    0.11240000
opls_140-762    H    0.00364988    0.27152991    0.31522997    0.10520000
opls_144-763    H    0.80966988    0.05667997    0.03097008    0.09910000
opls_146-764    H    0.15243003    0.48889991    0.04126011    0.11500000
opls_146-765    H    0.10440995    0.52139012    0.02717000    0.09740000
opls_146-766    H    0.13913992    0.43140989    0.95409007    0.11580000
opls_146-767    H    0.09105000    0.46358990    0.94008007    0.10360000
opls_140-768    H    0.05789995    0.27054001    0.39064988    0.12690000
opls_140-769    H    0.04061006    0.29644004    0.36005003    0.11240000
opls_140-770    H    0.50364988    0.22847009    0.68477003    0.10520000
opls_144-771    H    0.30966988    0.44332003    0.96902992    0.09910000
opls_146-772    H    0.65243003    0.01110009    0.95873989    0.11500000
opls_146-773    H    0.60440995    0.97860988    0.97283000    0.09740000
opls_146-774    H    0.63913992    0.06859011    0.04590993    0.11580000
opls_146-775    H    0.59105000    0.03641010    0.05991993    0.10360000
opls_140-776    H    0.44210005    0.72945999    0.89064988    0.12690000
opls_140-777    H    0.45938994    0.70355996    0.86005003    0.11240000
opls_140-778    H    0.99635012    0.77152991    0.18477003    0.10520000
opls_144-779    H    0.19033012    0.55667997    0.46902992    0.09910000
opls_146-780    H    0.84756997    0.98889991    0.45873989    0.11500000
opls_146-781    H    0.89559005    0.02139012    0.47283000    0.09740000
opls_146-782    H    0.86086008    0.93140989    0.54590993    0.11580000
opls_146-783    H    0.90895000    0.96358990    0.55991993    0.10360000
opls_140-784    H    0.94210005    0.77054001    0.10935012    0.12690000
opls_140-785    H    0.95938994    0.79644004    0.13994997    0.11240000
opls_140-786    H    0.49635012    0.72847009    0.81522997    0.10520000
opls_144-787    H    0.69033012    0.94332003    0.53097008    0.09910000
opls_146-788    H    0.34756997    0.51110009    0.54126011    0.11500000
opls_146-789    H    0.39559005    0.47860988    0.52717000    0.09740000
opls_146-790    H    0.36086008    0.56859011    0.45409007    0.11580000
opls_146-791    H    0.40895000    0.53641010    0.44008007    0.10360000
opls_140-792    H    0.35935000    0.02053989    0.19209993    0.12690000
opls_140-793    H    0.38995009    0.04643992    0.20939006    0.11240000
opls_140-794    H    0.06523009    0.97846997    0.74635000    0.10530000
opls_144-795    H    0.78096995    0.19331991    0.94033000    0.09910000
opls_146-796    H    0.79125999    0.76109996    0.59757010    0.11500000
opls_146-797    H    0.77717012    0.72861000    0.64558993    0.09740000
opls_146-798    H    0.70408994    0.81858998    0.61085996    0.11580000
opls_146-799    H    0.69007995    0.78640998    0.65895012    0.10970000
opls_140-800    H    0.14065000    0.97946011    0.69209993    0.12690000
opls_140-801    H    0.11004991    0.95356008    0.70939006    0.11240000
opls_140-802    H    0.43476991    0.02153003    0.24635000    0.10520000
opls_144-803    H    0.71903005    0.80668009    0.44033000    0.09910000
opls_146-804    H    0.70874001    0.23890004    0.09757010    0.11500000
opls_146-805    H    0.72282988    0.27139000    0.14558993    0.09740000
opls_146-806    H    0.79591006    0.18141002    0.11085996    0.11580000
opls_146-807    H    0.80992005    0.21359002    0.15895012    0.10970000
opls_140-808    H    0.64065000    0.52053989    0.30790007    0.12690000
opls_140-809    H    0.61004991    0.54643992    0.29060994    0.11240000
opls_140-810    H    0.93476991    0.47846997    0.75365000    0.10520000
opls_144-811    H    0.21903005    0.69331991    0.55967000    0.09910000
opls_146-812    H    0.20874001    0.26109996    0.90242990    0.11500000
opls_146-813    H    0.22282988    0.22861000    0.85441007    0.09740000
opls_146-814    H    0.29591006    0.31858998    0.88914004    0.11580000
opls_146-815    H    0.30992005    0.28640998    0.84104988    0.10970000
opls_140-816    H    0.85935000    0.47946011    0.80790007    0.12690000
opls_140-817    H    0.88995009    0.45356008    0.79060994    0.11240000
opls_140-818    H    0.56523009    0.52153003    0.25365000    0.10520000
opls_144-819    H    0.28096995    0.30668009    0.05967000    0.09910000
opls_146-820    H    0.29125999    0.73890004    0.40242990    0.11500000
opls_146-821    H    0.27717012    0.77139000    0.35441007    0.09740000
opls_146-822    H    0.20408994    0.68141002    0.38914004    0.11580000
opls_146-823    H    0.19007995    0.71359002    0.34104988    0.10970000
opls_140-824    H    0.80790007    0.85935000    0.47946011    0.12690000
opls_140-825    H    0.79060994    0.88995009    0.45356008    0.11240000
opls_140-826    H    0.25365000    0.56523009    0.52153003    0.10520000
opls_144-827    H    0.05967000    0.28096995    0.30668009    0.09910000
opls_146-828    H    0.40242990    0.29125999    0.73890004    0.11500000
opls_146-829    H    0.35441007    0.27717012    0.77139000    0.09740000
opls_146-830    H    0.38914004    0.20408994    0.68141002    0.11580000
opls_146-831    H    0.34104988    0.19007995    0.71359002    0.10970000
opls_140-832    H    0.30790007    0.64065000    0.52053989    0.12690000
opls_140-833    H    0.29060994    0.61004991    0.54643992    0.11240000
opls_140-834    H    0.75365000    0.93476991    0.47846997    0.10520000
opls_144-835    H    0.55967000    0.21903005    0.69331991    0.09910000
opls_146-836    H    0.90242990    0.20874001    0.26109996    0.11500000
opls_146-837    H    0.85441007    0.22282988    0.22861000    0.09740000
opls_146-838    H    0.88914004    0.29591006    0.31858998    0.11580000
opls_146-839    H    0.84104988    0.30992005    0.28640998    0.10970000
opls_140-840    H    0.69209993    0.14065000    0.97946011    0.12690000
opls_140-841    H    0.70939006    0.11004991    0.95356008    0.11240000
opls_140-842    H    0.24635000    0.43476991    0.02153003    0.10520000
opls_144-843    H    0.44033000    0.71903005    0.80668009    0.09910000
opls_146-844    H    0.09757010    0.70874001    0.23890004    0.11500000
opls_146-845    H    0.14558993    0.72282988    0.27139000    0.09740000
opls_146-846    H    0.11085996    0.79591006    0.18141002    0.11580000
opls_146-847    H    0.15895012    0.80992005    0.21359002    0.10970000
opls_140-848    H    0.19209993    0.35935000    0.02053989    0.12690000
opls_140-849    H    0.20939006    0.38995009    0.04643992    0.11240000
opls_140-850    H    0.74635000    0.06523009    0.97846997    0.10520000
opls_144-851    H    0.94033000    0.78096995    0.19331991    0.09910000
opls_146-852    H    0.59757010    0.79125999    0.76109996    0.11500000
opls_146-853    H    0.64558993    0.77717012    0.72861000    0.09750000
opls_146-854    H    0.61085996    0.70408994    0.81858998    0.11580000
opls_146-855    H    0.65895012    0.69007995    0.78640998    0.10970000
opls_140-856    H    0.02053989    0.19209993    0.35935000    0.12690000
opls_140-857    H    0.04643992    0.20939006    0.38995009    0.11240000
opls_140-858    H    0.97846997    0.74635000    0.06523009    0.10520000
opls_144-859    H    0.19331991    0.94033000    0.78096995    0.09910000
opls_146-860    H    0.76109996    0.59757010    0.79125999    0.11500000
opls_146-861    H    0.72861000    0.64558993    0.77717012    0.09740000
opls_146-862    H    0.81858998    0.61085996    0.70408994    0.11580000
opls_146-863    H    0.78640998    0.65895012    0.69007995    0.10970000
opls_140-864    H    0.97946011    0.69209993    0.14065000    0.12690000
opls_140-865    H    0.95356008    0.70939006    0.11004991    0.11240000
opls_140-866    H    0.02153003    0.24635000    0.43476991    0.10520000
opls_144-867    H    0.80668009    0.44033000    0.71903005    0.09910000
opls_146-868    H    0.23890004    0.09757010    0.70874001    0.11500000
opls_146-869    H    0.27139000    0.14558993    0.72282988    0.09740000
opls_146-870    H    0.18141002    0.11085996    0.79591006    0.11580000
opls_146-871    H    0.21359002    0.15895012    0.80992005    0.10970000
opls_140-872    H    0.52053989    0.30790007    0.64065000    0.12690000
opls_140-873    H    0.54643992    0.29060994    0.61004991    0.11240000
opls_140-874    H    0.47846997    0.75365000    0.93476991    0.10520000
opls_144-875    H    0.69331991    0.55967000    0.21903005    0.09910000
opls_146-876    H    0.26109996    0.90242990    0.20874001    0.11500000
opls_146-877    H    0.22861000    0.85441007    0.22282988    0.09740000
opls_146-878    H    0.31858998    0.88914004    0.29591006    0.11580000
opls_146-879    H    0.28640998    0.84104988    0.30992005    0.10970000
opls_140-880    H    0.47946011    0.80790007    0.85935000    0.12690000
opls_140-881    H    0.45356008    0.79060994    0.88995009    0.11240000
opls_140-882    H    0.52153003    0.25365000    0.56523009    0.10520000
opls_144-883    H    0.30668009    0.05967000    0.28096995    0.09910000
opls_146-884    H    0.73890004    0.40242990    0.29125999    0.11510000
opls_146-885    H    0.77139000    0.35441007    0.27717012    0.09740000
opls_146-886    H    0.68141002    0.38914004    0.20408994    0.11590000
opls_146-887    H    0.71359002    0.34104988    0.19007995    0.10970000
opls_140-888    H    0.77054001    0.89064988    0.55789995    0.12690000
opls_140-889    H    0.79644004    0.86005003    0.54061006    0.11240000
opls_140-890    H    0.72847009    0.18477003    0.00364988    0.10520000
opls_144-891    H    0.94332003    0.46902992    0.80966988    0.09910000
opls_146-892    H    0.51110009    0.45873989    0.15243003    0.11500000
opls_146-893    H    0.47860988    0.47283000    0.10440995    0.09740000
opls_146-894    H    0.56859011    0.54590993    0.13913992    0.11580000
opls_146-895    H    0.53641010    0.55991993    0.09105000    0.10360000
opls_140-896    H    0.72945999    0.10935012    0.05789995    0.12690000
opls_140-897    H    0.70355996    0.13994997    0.04061006    0.11240000
opls_140-898    H    0.77152991    0.81522997    0.50364988    0.10520000
opls_144-899    H    0.55667997    0.53097008    0.30966988    0.09910000
opls_146-900    H    0.98889991    0.54126011    0.65243003    0.11500000
opls_146-901    H    0.02139012    0.52717000    0.60440995    0.09740000
opls_146-902    H    0.93140989    0.45409007    0.63913992    0.11580000
opls_146-903    H    0.96358990    0.44008007    0.59105000    0.10360000
opls_140-904    H    0.27054001    0.60934988    0.44210005    0.12690000
opls_140-905    H    0.29644004    0.63994997    0.45938994    0.11240000
opls_140-906    H    0.22847009    0.31522997    0.99635012    0.10520000
opls_144-907    H    0.44332003    0.03097008    0.19033012    0.09910000
opls_146-908    H    0.01110009    0.04126011    0.84756997    0.11500000
opls_146-909    H    0.97860988    0.02717000    0.89559005    0.09740000
opls_146-910    H    0.06859011    0.95409007    0.86086008    0.11580000
opls_146-911    H    0.03641010    0.94008007    0.90895000    0.10360000
opls_140-912    H    0.22945999    0.39064988    0.94210005    0.12690000
opls_140-913    H    0.20355996    0.36005003    0.95938994    0.11240000
opls_140-914    H    0.27152991    0.68477003    0.49635012    0.10520000
opls_144-915    H    0.05667997    0.96902992    0.69033012    0.09910000
opls_146-916    H    0.48889991    0.95873989    0.34756997    0.11500000
opls_146-917    H    0.52139012    0.97283000    0.39559005    0.09740000
opls_146-918    H    0.43140989    0.04590993    0.36086008    0.11580000
opls_146-919    H    0.46358990    0.05991993    0.40895000    0.10360000
opls_140-920    H    0.60935012    0.44210005    0.27054001    0.12700000
opls_140-921    H    0.63994997    0.45938994    0.29644004    0.11240000
opls_140-922    H    0.31522997    0.99635012    0.22847009    0.10520000
opls_144-923    H    0.03097008    0.19033012    0.44332003    0.09910000
opls_146-924    H    0.04126011    0.84756997    0.01110009    0.11500000
opls_146-925    H    0.02717000    0.89559005    0.97860988    0.09740000
opls_146-926    H    0.95409007    0.86086008    0.06859011    0.11580000
opls_146-927    H    0.94008007    0.90895000    0.03641010    0.10360000
opls_140-928    H    0.39064988    0.94210005    0.22945999    0.12690000
opls_140-929    H    0.36005003    0.95938994    0.20355996    0.11240000
opls_140-930    H    0.68477003    0.49635012    0.27152991    0.10520000
opls_144-931    H    0.96902992    0.69033012    0.05667997    0.09910000
opls_146-932    H    0.95873989    0.34756997    0.48889991    0.11500000
opls_146-933    H    0.97283000    0.39559005    0.52139012    0.09740000
opls_146-934    H    0.04590993    0.36086008    0.43140989    0.11580000
opls_146-935    H    0.05991993    0.40895000    0.46358990    0.10360000
opls_140-936    H    0.89064988    0.55789995    0.77054001    0.12690000
opls_140-937    H    0.86005003    0.54061006    0.79644004    0.11240000
opls_140-938    H    0.18477003    0.00364988    0.72847009    0.10520000
opls_144-939    H    0.46902992    0.80966988    0.94332003    0.09910000
opls_146-940    H    0.45873989    0.15243003    0.51110009    0.11500000
opls_146-941    H    0.47283000    0.10440995    0.47860988    0.09740000
opls_146-942    H    0.54590993    0.13913992    0.56859011    0.11580000
opls_146-943    H    0.55991993    0.09105000    0.53641010    0.10360000
opls_140-944    H    0.10935012    0.05789995    0.72945999    0.12690000
opls_140-945    H    0.13994997    0.04061006    0.70355996    0.11240000
opls_140-946    H    0.81522997    0.50364988    0.77152991    0.10530000
opls_144-947    H    0.53097008    0.30966988    0.55667997    0.09910000
opls_146-948    H    0.54126011    0.65243003    0.98889991    0.11500000
opls_146-949    H    0.52717000    0.60440995    0.02139012    0.09740000
opls_146-950    H    0.45409007    0.63913992    0.93140989    0.11580000
opls_146-951    H    0.44008007    0.59105000    0.96358990    0.10360000
opls_140-952    H    0.94210005    0.22945999    0.39064988    0.12690000
opls_140-953    H    0.95938994    0.20355996    0.36005003    0.11240000
opls_140-954    H    0.49635012    0.27152991    0.68477003    0.10520000
opls_144-955    H    0.69033012    0.05667997    0.96902992    0.09910000
opls_146-956    H    0.34756997    0.48889991    0.95873989    0.11500000
opls_146-957    H    0.39559005    0.52139012    0.97283000    0.09740000
opls_146-958    H    0.36086008    0.43140989    0.04590993    0.11580000
opls_146-959    H    0.40895000    0.46358990    0.05991993    0.10360000
opls_140-960    H    0.44210005    0.27054001    0.60935012    0.12690000
opls_140-961    H    0.45938994    0.29644004    0.63994997    0.11240000
opls_140-962    H    0.99635012    0.22847009    0.31522997    0.10520000
opls_144-963    H    0.19033012    0.44332003    0.03097008    0.09910000
opls_146-964    H    0.84756997    0.01110009    0.04126011    0.11500000
opls_146-965    H    0.89559005    0.97860988    0.02717000    0.09740000
opls_146-966    H    0.86086008    0.06859011    0.95409007    0.11580000
opls_146-967    H    0.90895000    0.03641010    0.94008007    0.10360000
opls_140-968    H    0.05789995    0.72945999    0.10935012    0.12690000
opls_140-969    H    0.04061006    0.70355996    0.13994997    0.11240000
opls_140-970    H    0.50364988    0.77152991    0.81522997    0.10520000
opls_144-971    H    0.30966988    0.55667997    0.53097008    0.09910000
opls_146-972    H    0.65243003    0.98889991    0.54126011    0.11500000
opls_146-973    H    0.60440995    0.02139012    0.52717000    0.09740000
opls_146-974    H    0.63913992    0.93140989    0.45409007    0.11580000
opls_146-975    H    0.59105000    0.96358990    0.44008007    0.10360000
opls_140-976    H    0.55789995    0.77054001    0.89064988    0.12690000
opls_140-977    H    0.54061006    0.79644004    0.86005003    0.11240000
opls_140-978    H    0.00364988    0.72847009    0.18477003    0.10520000
opls_144-979    H    0.80966988    0.94332003    0.46902992    0.09910000
opls_146-980    H    0.15243003    0.51110009    0.45873989    0.11500000
opls_146-981    H    0.10440995    0.47860988    0.47283000    0.09740000
opls_146-982    H    0.13913992    0.56859011    0.54590993    0.11580000
opls_146-983    H    0.09105000    0.53641010    0.55991993    0.10360000
