#======================================================================
# Crystal Data Generated By AuToFF
#----------------------------------------------------------------------

data_AuToFF_phase_1

_cell_length_a                         50.3000
_cell_length_b                         50.3000
_cell_length_c                         3.9000
_cell_angle_alpha                      90.00
_cell_angle_beta                       90.00
_cell_angle_gamma                      90.00
_symmetry_space_group_name_H-M_alt     'P 1'
_symmetry_space_group_IT_number        1

loop_
_space_group_symop_operation_xyz
   'x, y, z'

loop_
   _atom_site_label
   _atom_site_type_symbol
   _atom_site_fract_x
   _atom_site_fract_y
   _atom_site_fract_z
   _atom_site_charge
opls_716-0    C    0.47540994    0.63820000    0.26972051    -0.16960000
opls_716-1    C    0.45603002    0.65756998    0.26945897    -0.17090000
opls_543-2    C    0.46336004    0.61413002    0.38492051    0.20090000
opls_543-3    C    0.43196004    0.64553002    0.38445897    0.20090000
opls_543-4    C    0.46344990    0.56736998    0.55968974    0.19620000
opls_716-5    C    0.47553996    0.54303996    0.67390000    -0.17340000
opls_716-6    C    0.45633002    0.52380994    0.67296923    -0.16960000
opls_543-7    C    0.43202008    0.53590994    0.55841026    0.19610000
opls_543-8    C    0.38527992    0.53602008    0.38258974    0.20090000
opls_716-9    C    0.36123002    0.52397992    0.26648974    -0.16960000
opls_716-10    C    0.34184990    0.54336004    0.26617949    -0.17340000
opls_543-11    C    0.35386998    0.56742008    0.38207949    0.20100000
opls_543-12    C    0.35372008    0.61417992    0.55690000    0.20100000
opls_716-13    C    0.34159006    0.63850994    0.67058974    -0.16750000
opls_716-14    C    0.36082008    0.65773002    0.67155897    -0.16750000
opls_543-15    C    0.38516998    0.64563002    0.55823077    0.19620000
opls_700-16    C    0.33973002    0.59092008    0.46974103    -0.07930000
opls_700-17    C    0.40877992    0.52190000    0.47096923    -0.07930000
opls_700-18    C    0.47746998    0.59062008    0.47317949    -0.07930000
opls_700-19    C    0.40843002    0.65963996    0.47207949    -0.07930000
opls_700-20    C    0.50713996    0.59069006    0.47413077    0.07310000
opls_145-21    C    0.52179006    0.56982008    0.31990000    -0.12770000
opls_145-22    C    0.52172008    0.61162008    0.62814872    -0.12080000
opls_145-23    C    0.54947992    0.56996004    0.32251026    -0.05020000
opls_145-24    C    0.54940994    0.61156004    0.62645897    -0.04910000
opls_145-25    C    0.56370000    0.59076004    0.47478974    -0.23310000
opls_166-26    C    0.63530994    0.57813002    0.39595128    0.19550000
opls_166-27    C    0.63532008    0.60333002    0.55448974    0.19840000
opls_145-28    C    0.65859006    0.56430000    0.30862051    -0.29030000
opls_145-29    C    0.65862008    0.61713002    0.64172051    -0.28220000
opls_166-30    C    0.68187992    0.57810994    0.39574103    0.18960000
opls_166-31    C    0.68189006    0.60330994    0.55431026    0.18960000
opls_145-32    C    0.75350994    0.59072008    0.47378974    -0.23310000
opls_145-33    C    0.76777992    0.56996998    0.32104872    -0.04910000
opls_145-34    C    0.76773002    0.61153002    0.62596923    -0.05020000
opls_145-35    C    0.79546998    0.56993002    0.31821026    -0.12080000
opls_145-36    C    0.79542008    0.61169006    0.62754103    -0.12260000
opls_700-37    C    0.81006004    0.59084990    0.47227949    0.06660000
opls_700-38    C    0.40870994    0.49223002    0.47121026    0.07320000
opls_145-39    C    0.38776998    0.47763002    0.62455897    -0.12080000
opls_145-40    C    0.42959006    0.47760000    0.31690000    -0.12770000
opls_145-41    C    0.38783996    0.44993996    0.62214872    -0.04910000
opls_145-42    C    0.42946004    0.44990994    0.31868974    -0.05020000
opls_145-43    C    0.40863996    0.43566998    0.47033077    -0.23310000
opls_166-44    C    0.39603996    0.36404990    0.54878974    0.18950000
opls_166-45    C    0.42123996    0.36406004    0.39027949    0.18920000
opls_145-46    C    0.38223002    0.34076004    0.63590000    -0.28220000
opls_145-47    C    0.43506004    0.34077992    0.30286923    -0.28220000
opls_166-48    C    0.39603996    0.31747992    0.54851026    0.18950000
opls_166-49    C    0.42124990    0.31749006    0.38996923    0.19840000
opls_145-50    C    0.40866004    0.24586004    0.46945897    -0.23310000
opls_145-51    C    0.38789006    0.23160000    0.62203077    -0.04910000
opls_145-52    C    0.42944990    0.23163002    0.31704872    -0.05050000
opls_145-53    C    0.38782008    0.20390994    0.62455897    -0.12080000
opls_145-54    C    0.42956998    0.20393996    0.31513077    -0.12080000
opls_700-55    C    0.40873002    0.18930994    0.47033077    0.07320000
opls_700-56    C    0.31006004    0.59083002    0.46954103    0.07320000
opls_145-57    C    0.29543002    0.61166998    0.31445897    -0.12770000
opls_145-58    C    0.29546998    0.56990000    0.62333077    -0.12080000
opls_145-59    C    0.26773996    0.61152008    0.31592051    -0.05020000
opls_145-60    C    0.26777992    0.56993996    0.62045897    -0.05020000
opls_145-61    C    0.25350994    0.59070000    0.46792051    -0.23310000
opls_166-62    C    0.18189006    0.60330000    0.38755897    0.18950000
opls_166-63    C    0.18187992    0.57810000    0.54607949    0.19470000
opls_145-64    C    0.15862008    0.61713002    0.30023077    -0.28220000
opls_145-65    C    0.15859006    0.56430000    0.63321026    -0.29030000
opls_166-66    C    0.13533002    0.60332008    0.38737949    0.18950000
opls_166-67    C    0.13530994    0.57812008    0.54586923    0.18920000
opls_145-68    C    0.06370000    0.59075010    0.46690000    -0.23310000
opls_145-69    C    0.04940000    0.61154990    0.31541026    -0.04910000
opls_145-70    C    0.04949006    0.56993002    0.61900000    -0.04960000
opls_145-71    C    0.02172008    0.61162008    0.31378974    -0.12770000
opls_145-72    C    0.02179006    0.56980000    0.62164103    -0.12260000
opls_700-73    C    0.00713996    0.59067992    0.46766923    0.07310000
opls_700-74    C    0.40850994    0.68930994    0.47264103    0.07320000
opls_145-75    C    0.42942008    0.70389006    0.62703077    -0.12080000
opls_145-76    C    0.38767992    0.70396004    0.31764103    -0.12080000
opls_145-77    C    0.42936998    0.73157992    0.62486923    -0.04910000
opls_145-78    C    0.38780994    0.73164990    0.31992051    -0.05020000
opls_145-79    C    0.40860994    0.74586998    0.47251026    -0.23310000
opls_166-80    C    0.42119006    0.81749006    0.55205128    0.18960000
opls_166-81    C    0.39599006    0.81747992    0.39351026    0.18920000
opls_145-82    C    0.43500000    0.84076998    0.63933077    -0.28160000
opls_145-83    C    0.38216998    0.84076998    0.30627949    -0.28220000
opls_166-84    C    0.42117992    0.86404990    0.55207949    0.18920000
opls_166-85    C    0.39597992    0.86404990    0.39355897    0.18950000
opls_145-86    C    0.40857992    0.93567992    0.47276923    -0.23310000
opls_145-87    C    0.42937992    0.94996004    0.62435897    -0.05020000
opls_145-88    C    0.38774990    0.94989006    0.32095128    -0.05050000
opls_145-89    C    0.42943002    0.97765010    0.62637949    -0.12260000
opls_145-90    C    0.38760994    0.97757992    0.31876923    -0.12080000
opls_700-91    C    0.40847992    0.99223996    0.47284872    0.07320000
opls_700-92    C    0.83973002    0.59093996    0.47210000    -0.07930000
opls_543-93    C    0.85372008    0.61420000    0.38521026    0.19620000
opls_543-94    C    0.85386998    0.56742008    0.55937949    0.20090000
opls_716-95    C    0.84159006    0.63853002    0.27176923    -0.16750000
opls_716-96    C    0.84185010    0.54334990    0.67484872    -0.16950000
opls_716-97    C    0.86082008    0.65776004    0.27121026    -0.17810000
opls_543-98    C    0.88516998    0.64564990    0.38444103    0.19610000
opls_716-99    C    0.86122008    0.52397992    0.67410000    -0.16950000
opls_543-100    C    0.88526998    0.53602008    0.55823077    0.20090000
opls_700-101    C    0.90843002    0.65964990    0.47084872    -0.08130000
opls_700-102    C    0.90876998    0.52190000    0.46974103    -0.07930000
opls_543-103    C    0.93196004    0.64552008    0.55817949    0.20090000
opls_543-104    C    0.93200994    0.53592008    0.38241026    0.20050000
opls_716-105    C    0.95603002    0.65754990    0.67327949    -0.16960000
opls_716-106    C    0.95632008    0.52383002    0.26764103    -0.16750000
opls_716-107    C    0.97540994    0.63817992    0.67255897    -0.16960000
opls_543-108    C    0.96336004    0.61412008    0.55710000    0.20090000
opls_716-109    C    0.97553996    0.54306004    0.26714872    -0.16960000
opls_543-110    C    0.96344990    0.56736998    0.38174103    0.19610000
opls_700-111    C    0.97746998    0.59062008    0.46864103    -0.07930000
opls_700-112    C    0.40879006    0.15965010    0.47021026    -0.07930000
opls_543-113    C    0.43205010    0.14563002    0.55674103    0.19610000
opls_543-114    C    0.38526004    0.14553002    0.38304872    0.20090000
opls_716-115    C    0.45639006    0.15773002    0.67010000    -0.16750000
opls_716-116    C    0.36119006    0.15756998    0.26807949    -0.16960000
opls_716-117    C    0.47560994    0.13849006    0.66996923    -0.16750000
opls_543-118    C    0.46347992    0.11416998    0.55648974    0.19610000
opls_716-119    C    0.34179006    0.13820994    0.26923077    -0.16960000
opls_543-120    C    0.35383996    0.11414990    0.38466923    0.20090000
opls_700-121    C    0.47746998    0.09090994    0.46945897    -0.08130000
opls_700-122    C    0.33973002    0.09063996    0.47303077    -0.07930000
opls_543-123    C    0.46333002    0.06740000    0.38200000    0.20090000
opls_543-124    C    0.35373996    0.06739006    0.55972051    0.20050000
opls_716-125    C    0.47533996    0.04333002    0.26633077    -0.16950000
opls_716-126    C    0.34163996    0.04306998    0.67415128    -0.17620000
opls_716-127    C    0.45596004    0.02395010    0.26744103    -0.16960000
opls_543-128    C    0.43192008    0.03600994    0.38355897    0.20090000
opls_716-129    C    0.36086998    0.02383996    0.67400000    -0.16750000
opls_543-130    C    0.38517992    0.03593002    0.55941026    0.19620000
opls_700-131    C    0.40842008    0.02190000    0.47223077    -0.07930000
opls_700-132    C    0.90872008    0.49223996    0.46913077    0.07320000
opls_145-133    C    0.88777992    0.47764990    0.31548974    -0.12770000
opls_145-134    C    0.92960994    0.47760000    0.62317949    -0.12260000
opls_145-135    C    0.88786004    0.44996004    0.31741026    -0.04960000
opls_145-136    C    0.92949006    0.44990994    0.62090000    -0.05020000
opls_145-137    C    0.90866998    0.43567992    0.46900000    -0.23310000
opls_166-138    C    0.89606998    0.36404990    0.38990000    0.18950000
opls_166-139    C    0.92126998    0.36406004    0.54841026    0.18920000
opls_145-140    C    0.88226004    0.34076998    0.30268974    -0.28220000
opls_145-141    C    0.93509006    0.34077992    0.63574103    -0.28220000
opls_166-142    C    0.89606998    0.31749006    0.39005128    0.19550000
opls_166-143    C    0.92127992    0.31749006    0.54858974    0.19840000
opls_145-144    C    0.90865010    0.24586998    0.47017949    -0.23310000
opls_145-145    C    0.88783996    0.23166004    0.31778974    -0.04910000
opls_145-146    C    0.92940000    0.23157992    0.62276923    -0.04960000
opls_145-147    C    0.88769006    0.20396004    0.31592051    -0.13550000
opls_145-148    C    0.92943002    0.20389006    0.62535897    -0.12260000
opls_700-149    C    0.90850994    0.18930994    0.47110000    0.07310000
opls_700-150    C    0.90850994    0.68930994    0.47064103    0.07320000
opls_145-151    C    0.88767992    0.70396004    0.62578974    -0.12260000
opls_145-152    C    0.92943002    0.70389006    0.31637949    -0.13550000
opls_145-153    C    0.88783996    0.73166004    0.62392051    -0.04910000
opls_145-154    C    0.92940000    0.73159006    0.31895128    -0.04960000
opls_145-155    C    0.90865010    0.74586998    0.47155897    -0.23320000
opls_166-156    C    0.89606998    0.81749006    0.55168974    0.18920000
opls_166-157    C    0.92126998    0.81750000    0.39315128    0.18960000
opls_145-158    C    0.88225010    0.84076998    0.63904872    -0.28160000
opls_145-159    C    0.93507992    0.84077992    0.30600000    -0.28260000
opls_166-160    C    0.89606004    0.86404990    0.55184872    0.19550000
opls_166-161    C    0.92126998    0.86406004    0.39333077    0.19840000
opls_145-162    C    0.90866004    0.93567992    0.47276923    -0.23310000
opls_145-163    C    0.88785010    0.94996004    0.62433077    -0.04960000
opls_145-164    C    0.92947992    0.94990994    0.32086923    -0.05020000
opls_145-165    C    0.88776998    0.97765010    0.62627949    -0.12770000
opls_145-166    C    0.92960000    0.97760000    0.31858974    -0.12260000
opls_700-167    C    0.90870994    0.99223996    0.47266923    0.07320000
opls_700-168    C    0.90843002    0.15965010    0.47090000    -0.08130000
opls_543-169    C    0.88516004    0.14565010    0.55731026    0.19610000
opls_543-170    C    0.93195010    0.14552008    0.38355897    0.20090000
opls_716-171    C    0.86082008    0.15776004    0.67051026    -0.17340000
opls_716-172    C    0.95603002    0.15754990    0.26845897    -0.16950000
opls_716-173    C    0.84159006    0.13853996    0.66994872    -0.16750000
opls_543-174    C    0.85372008    0.11420000    0.55654103    0.20050000
opls_716-175    C    0.97540994    0.13817992    0.26917949    -0.17090000
opls_543-176    C    0.96336004    0.11412008    0.38464103    0.20090000
opls_700-177    C    0.83972008    0.09093996    0.46964103    -0.07930000
opls_700-178    C    0.97746998    0.09062008    0.47315128    -0.08130000
opls_543-179    C    0.85386004    0.06742008    0.38235897    0.20090000
opls_543-180    C    0.96344990    0.06736998    0.56003077    0.20050000
opls_716-181    C    0.84183996    0.04336004    0.26686923    -0.17090000
opls_716-182    C    0.97553996    0.04306004    0.67464103    -0.17330000
opls_716-183    C    0.86122008    0.02397992    0.26764103    -0.17340000
opls_543-184    C    0.88526998    0.03602008    0.38351026    0.20090000
opls_716-185    C    0.95630994    0.02383002    0.67413077    -0.16750000
opls_543-186    C    0.93200994    0.03592008    0.55933077    0.19610000
opls_700-187    C    0.90876998    0.02190000    0.47203077    -0.07930000
opls_700-188    C    0.50713002    0.09080000    0.46925897    0.07320000
opls_145-189    C    0.52172008    0.06986004    0.62282051    -0.12080000
opls_145-190    C    0.52177992    0.11164990    0.31441026    -0.13550000
opls_145-191    C    0.54940994    0.06989006    0.61996923    -0.04960000
opls_145-192    C    0.54946998    0.11149006    0.31590000    -0.05050000
opls_145-193    C    0.56369006    0.09066004    0.46766923    -0.23310000
opls_166-194    C    0.63532008    0.07804990    0.54596923    0.19840000
opls_166-195    C    0.63530994    0.10325010    0.38741026    0.18950000
opls_145-196    C    0.65860994    0.06423996    0.63323077    -0.28220000
opls_145-197    C    0.65859006    0.11706998    0.30010000    -0.28220000
opls_166-198    C    0.68187992    0.07806004    0.54600000    0.18920000
opls_166-199    C    0.68187992    0.10326998    0.38741026    0.19840000
opls_145-200    C    0.75350000    0.09072008    0.46786923    -0.23300000
opls_145-201    C    0.76777992    0.06996998    0.62064103    -0.04960000
opls_145-202    C    0.76773002    0.11153002    0.31568974    -0.04910000
opls_145-203    C    0.79546998    0.06993002    0.62354103    -0.12080000
opls_145-204    C    0.79542008    0.11169006    0.31417949    -0.12260000
opls_700-205    C    0.81006004    0.09084990    0.46948974    0.07310000
opls_700-206    C    0.31006004    0.09072008    0.47396923    0.07310000
opls_145-207    C    0.29540000    0.06986004    0.31951026    -0.12080000
opls_145-208    C    0.29549006    0.11163996    0.62823077    -0.12770000
opls_145-209    C    0.26770994    0.07000000    0.32217949    -0.04910000
opls_145-210    C    0.26780000    0.11159006    0.62655897    -0.04900000
opls_145-211    C    0.25350000    0.09080994    0.47468974    -0.23310000
opls_166-212    C    0.18189006    0.07816998    0.39596923    0.18960000
opls_166-213    C    0.18187992    0.10337992    0.55448974    0.18920000
opls_145-214    C    0.15860994    0.06436004    0.30874103    -0.28220000
opls_145-215    C    0.15859006    0.11717992    0.64172051    -0.28220000
opls_166-216    C    0.13532008    0.07816004    0.39596923    0.18950000
opls_166-217    C    0.13530994    0.10336004    0.55445897    0.18960000
opls_145-218    C    0.06369006    0.09075010    0.47484872    -0.23310000
opls_145-219    C    0.04947992    0.06993002    0.32274103    -0.05020000
opls_145-220    C    0.04940000    0.11155010    0.62633077    -0.04910000
opls_145-221    C    0.02179006    0.06980000    0.32015128    -0.12080000
opls_145-222    C    0.02170994    0.11162008    0.62796923    -0.12260000
opls_700-223    C    0.00713002    0.09067992    0.47413077    0.07320000
opls_542-224    N    0.43615010    0.61832008    0.43396923    -0.36490000
opls_542-225    N    0.43615010    0.56322008    0.51396923    -0.36090000
opls_542-226    N    0.38106998    0.56323002    0.43223077    -0.36490000
opls_542-227    N    0.38103996    0.61832008    0.51296923    -0.36090000
opls_542-228    N    0.88103996    0.61833996    0.42925897    -0.36090000
opls_542-229    N    0.88106998    0.56323002    0.50907949    -0.36490000
opls_542-230    N    0.93613996    0.61832008    0.50817949    -0.36490000
opls_542-231    N    0.93614990    0.56323002    0.42731026    -0.36090000
opls_542-232    N    0.43616998    0.11832008    0.51213077    -0.36090000
opls_542-233    N    0.38106004    0.11833002    0.43323077    -0.36490000
opls_542-234    N    0.43612008    0.06322008    0.43254103    -0.36490000
opls_542-235    N    0.38104990    0.06323996    0.51435897    -0.36090000
opls_542-236    N    0.88103002    0.11833996    0.51248974    -0.36080000
opls_542-237    N    0.93613996    0.11832008    0.43354103    -0.36490000
opls_542-238    N    0.88106998    0.06323002    0.43264103    -0.36490000
opls_542-239    N    0.93613996    0.06323002    0.51444103    -0.36010000
Cu2+-240    Cu    0.40860000    0.59076998    0.47435897    0.76640000
Cu2+-241    Cu    0.90860000    0.59077992    0.46737949    0.76630000
Cu2+-242    Cu    0.40860000    0.09076998    0.47413077    0.76630000
Cu2+-243    Cu    0.90859006    0.09077992    0.47433077    0.76630000
opls_547-244    H    0.32106004    0.54046998    0.19325897    0.13770000
opls_547-245    H    0.35835010    0.50319006    0.19386923    0.11500000
opls_547-246    H    0.45922008    0.50299006    0.74486923    0.11750000
opls_547-247    H    0.49633996    0.54016004    0.74692051    0.11680000
opls_547-248    H    0.49622008    0.64109006    0.19768974    0.11900000
opls_547-249    H    0.45893002    0.67836998    0.19715128    0.13770000
opls_547-250    H    0.35792008    0.67853996    0.74400000    0.12260000
opls_547-251    H    0.32076004    0.64140000    0.74182051    0.11530000
opls_146-252    H    0.51143002    0.55353002    0.18813077    0.07720000
opls_146-253    H    0.51129006    0.62793002    0.75876923    0.06670000
opls_146-254    H    0.56134990    0.55419006    0.20151026    0.07100000
opls_146-255    H    0.56120000    0.62736998    0.74754103    0.07710000
opls_146-256    H    0.65857992    0.54476998    0.18374103    0.09150000
opls_146-257    H    0.65863002    0.63666004    0.76645897    0.09290000
opls_146-258    H    0.75596998    0.55416004    0.19994872    0.07850000
opls_146-259    H    0.75587992    0.62726998    0.74774103    0.06970000
opls_146-260    H    0.80587992    0.55366004    0.18658974    0.06930000
opls_146-261    H    0.80579006    0.62797992    0.75925897    0.06930000
opls_146-262    H    0.37143996    0.48803002    0.75521026    0.11440000
opls_146-263    H    0.44590000    0.48797992    0.18574103    0.06930000
opls_146-264    H    0.37202008    0.43812008    0.74272051    0.06670000
opls_146-265    H    0.44523996    0.43806998    0.19758974    0.06670000
opls_146-266    H    0.36270000    0.34076004    0.76072051    0.09080000
opls_146-267    H    0.45459006    0.34077992    0.17807949    0.10010000
opls_146-268    H    0.37210000    0.24342008    0.74321026    0.06970000
opls_146-269    H    0.44520000    0.24346998    0.19535897    0.07150000
opls_146-270    H    0.37153996    0.19350994    0.75607949    0.06930000
opls_146-271    H    0.44585010    0.19356004    0.18317949    0.11440000
opls_146-272    H    0.30580000    0.62796998    0.18296923    0.06930000
opls_146-273    H    0.30586998    0.55360994    0.75472051    0.06970000
opls_146-274    H    0.25589006    0.62726004    0.19425897    0.07710000
opls_146-275    H    0.25596998    0.55413002    0.74133077    0.07150000
opls_146-276    H    0.15863002    0.63666004    0.17545897    0.10010000
opls_146-277    H    0.15857992    0.54476004    0.75800000    0.08600000
opls_146-278    H    0.06120000    0.62736998    0.19441026    0.11250000
opls_146-279    H    0.06136004    0.55416004    0.73978974    0.06970000
opls_146-280    H    0.01129006    0.62793996    0.18335897    0.06670000
opls_146-281    H    0.01143996    0.55349006    0.75323077    0.06930000
opls_146-282    H    0.44570000    0.69346998    0.75835897    0.06970000
opls_146-283    H    0.37139006    0.69360000    0.18555897    0.07850000
opls_146-284    H    0.44516998    0.74337992    0.74623077    0.11440000
opls_146-285    H    0.37206998    0.74350994    0.19841026    0.06930000
opls_146-286    H    0.45453002    0.84076998    0.76410000    0.10010000
opls_146-287    H    0.36263996    0.84076998    0.18145897    0.09080000
opls_146-288    H    0.44520000    0.93816004    0.74513077    0.06930000
opls_146-289    H    0.37197992    0.93803002    0.20007949    0.06930000
opls_146-290    H    0.44574990    0.98806998    0.75694872    0.06670000
opls_146-291    H    0.37129006    0.98793996    0.18754103    0.06940000
opls_547-292    H    0.82076004    0.64143002    0.20058974    0.11530000
opls_547-293    H    0.82106004    0.54046004    0.74800000    0.11530000
opls_547-294    H    0.85792008    0.67857992    0.19931026    0.11680000
opls_547-295    H    0.85833996    0.50316998    0.74641026    0.11530000
opls_547-296    H    0.95893002    0.67834990    0.74613077    0.11680000
opls_547-297    H    0.95920000    0.50300994    0.19544103    0.11160000
opls_547-298    H    0.99622008    0.64106998    0.74466923    0.11450000
opls_547-299    H    0.99633996    0.54017992    0.19433077    0.11530000
opls_547-300    H    0.45930000    0.17854990    0.74185128    0.11750000
opls_547-301    H    0.35830000    0.17836004    0.19507949    0.11900000
opls_547-302    H    0.49643996    0.14137992    0.74162051    0.11160000
opls_547-303    H    0.32097992    0.14110994    0.19762051    0.10100000
opls_547-304    H    0.49610994    0.04043002    0.19282051    0.10100000
opls_547-305    H    0.32083002    0.04020000    0.74664103    0.11750000
opls_547-306    H    0.45883996    0.00315010    0.19527949    0.10100000
opls_547-307    H    0.35797992    0.00303002    0.74637949    0.11750000
opls_146-308    H    0.87146004    0.48806004    0.18503077    0.07520000
opls_146-309    H    0.94592008    0.48796998    0.75454103    0.06970000
opls_146-310    H    0.87203996    0.43814990    0.19662051    0.11440000
opls_146-311    H    0.94526004    0.43805010    0.74176923    0.06930000
opls_146-312    H    0.86272008    0.34076998    0.17792051    0.09320000
opls_146-313    H    0.95462008    0.34077992    0.76055897    0.09080000
opls_146-314    H    0.87210994    0.24352008    0.19613077    0.07710000
opls_146-315    H    0.94520994    0.24337992    0.74400000    0.11250000
opls_146-316    H    0.87139006    0.19360000    0.18403077    0.07100000
opls_146-317    H    0.94570000    0.19346998    0.75694872    0.06670000
opls_146-318    H    0.87139006    0.69360994    0.75768974    0.07710000
opls_146-319    H    0.94570000    0.69346998    0.18482051    0.06670000
opls_146-320    H    0.87210994    0.74352008    0.74558974    0.07710000
opls_146-321    H    0.94520994    0.74337992    0.19772051    0.06970000
opls_146-322    H    0.86272008    0.84076004    0.76382051    0.10010000
opls_146-323    H    0.95460994    0.84079006    0.18117949    0.09080000
opls_146-324    H    0.87203002    0.93814990    0.74513077    0.11440000
opls_146-325    H    0.94525010    0.93804990    0.19996923    0.06930000
opls_146-326    H    0.87144990    0.98806004    0.75674103    0.07520000
opls_146-327    H    0.94590994    0.98796998    0.18721026    0.06970000
opls_547-328    H    0.85792008    0.17857992    0.74241026    0.11680000
opls_547-329    H    0.95892008    0.17833996    0.19562051    0.05020000
opls_547-330    H    0.82076004    0.14143996    0.74114872    0.11530000
opls_547-331    H    0.99620994    0.14106998    0.19710000    0.10100000
opls_547-332    H    0.82106004    0.04046004    0.19374103    0.10930000
opls_547-333    H    0.99633996    0.04017992    0.74748974    0.11750000
opls_547-334    H    0.85833996    0.00316998    0.19533077    0.11530000
opls_547-335    H    0.95920000    0.00300994    0.74635897    0.11010000
opls_146-336    H    0.51130994    0.05356998    0.75407949    0.06970000
opls_146-337    H    0.51140994    0.12796998    0.18307949    0.07850000
opls_146-338    H    0.56122008    0.05406004    0.74074103    0.10940000
opls_146-339    H    0.56133002    0.12723002    0.19445897    0.07520000
opls_146-340    H    0.65862008    0.04470994    0.75810000    0.09080000
opls_146-341    H    0.65857992    0.13660000    0.17533077    0.10010000
opls_146-342    H    0.75596998    0.05416004    0.74168974    0.11250000
opls_146-343    H    0.75587992    0.12726998    0.19386923    0.06670000
opls_146-344    H    0.80587992    0.05366004    0.75517949    0.07160000
opls_146-345    H    0.80579006    0.12797992    0.18248974    0.07710000
opls_146-346    H    0.30574990    0.05356998    0.18758974    0.07710000
opls_146-347    H    0.30592008    0.12793996    0.75903077    0.06970000
opls_146-348    H    0.25583002    0.05425010    0.20107949    0.06670000
opls_146-349    H    0.25602008    0.12740000    0.74790000    0.06930000
opls_146-350    H    0.15860994    0.04482008    0.18394872    0.08600000
opls_146-351    H    0.15857992    0.13672008    0.76645897    0.09320000
opls_146-352    H    0.06134990    0.05416004    0.20194872    0.06970000
opls_146-353    H    0.06119006    0.12736998    0.74731026    0.07150000
opls_146-354    H    0.01143996    0.05349006    0.18855897    0.06930000
opls_146-355    H    0.01127992    0.12793996    0.75841026    0.06670000
MOF2_B_2-356    B    0.59343996    0.59076004    0.47504872    0.61160000
MOF2_B_2-357    B    0.72376004    0.59070000    0.47448974    0.61160000
MOF2_B_2-358    B    0.40863996    0.40593002    0.46990000    0.61160000
MOF2_B_2-359    B    0.40865010    0.27560994    0.46923077    0.61160000
MOF2_B_2-360    B    0.22376004    0.59069006    0.46727949    0.61160000
MOF2_B_2-361    B    0.09343996    0.59075010    0.46668974    0.61160000
MOF2_B_2-362    B    0.40860994    0.77560994    0.47255897    0.61160000
MOF2_B_2-363    B    0.40857992    0.90593002    0.47276923    0.61170000
MOF2_B_2-364    B    0.90866998    0.40593996    0.46903077    0.61160000
MOF2_B_2-365    B    0.90866998    0.27560994    0.46972051    0.61160000
MOF2_B_2-366    B    0.90866998    0.77560994    0.47203077    0.61160000
MOF2_B_2-367    B    0.90866004    0.90593996    0.47272051    0.61160000
MOF2_B_2-368    B    0.59343002    0.09063996    0.46707949    0.61160000
MOF2_B_2-369    B    0.72376004    0.09069006    0.46717949    0.61160000
MOF2_B_2-370    B    0.22376004    0.09080000    0.47500000    0.61160000
MOF2_B_2-371    B    0.09343002    0.09076004    0.47507949    0.61160000
opls_167-372    O    0.60910994    0.57020000    0.34525897    -0.32030000
opls_167-373    O    0.60913002    0.61129006    0.60504872    -0.32000000
opls_167-374    O    0.70806004    0.57016004    0.34478974    -0.31690000
opls_167-375    O    0.70809006    0.61123996    0.60466923    -0.32000000
opls_167-376    O    0.38810000    0.39023996    0.59964103    -0.31690000
opls_167-377    O    0.42917992    0.39026004    0.33986923    -0.32000000
opls_167-378    O    0.38810994    0.29129006    0.59915128    -0.32140000
opls_167-379    O    0.42919006    0.29130000    0.33931026    -0.31990000
opls_167-380    O    0.20809006    0.61123996    0.33717949    -0.32030000
opls_167-381    O    0.20806004    0.57014990    0.59696923    -0.31690000
opls_167-382    O    0.10913996    0.61127992    0.33678974    -0.32060000
opls_167-383    O    0.10910994    0.57019006    0.59648974    -0.32030000
opls_167-384    O    0.42913996    0.79130000    0.60258974    -0.31690000
opls_167-385    O    0.38806004    0.79129006    0.34274103    -0.31690000
opls_167-386    O    0.42912008    0.89025010    0.60268974    -0.32060000
opls_167-387    O    0.38803996    0.89025010    0.34292051    -0.32060000
opls_167-388    O    0.88812008    0.39024990    0.33921026    -0.31950000
opls_167-389    O    0.92920994    0.39026004    0.59894872    -0.32060000
opls_167-390    O    0.88813002    0.29129006    0.33962051    -0.32030000
opls_167-391    O    0.92920994    0.29130000    0.59945897    -0.31690000
opls_167-392    O    0.88813002    0.79129006    0.60213077    -0.32030000
opls_167-393    O    0.92920994    0.79130994    0.34227949    -0.32060000
opls_167-394    O    0.88812008    0.89025010    0.60255897    -0.32030000
opls_167-395    O    0.92920000    0.89026004    0.34282051    -0.31990000
opls_167-396    O    0.60913002    0.07010000    0.59682051    -0.32030000
opls_167-397    O    0.60910994    0.11117992    0.33696923    -0.32060000
opls_167-398    O    0.70807992    0.07013996    0.59690000    -0.32060000
opls_167-399    O    0.70806998    0.11122008    0.33700000    -0.32000000
opls_167-400    O    0.20807992    0.07024990    0.34523077    -0.32140000
opls_167-401    O    0.20806998    0.11133002    0.60500000    -0.31690000
opls_167-402    O    0.10912008    0.07022008    0.34527949    -0.32030000
opls_167-403    O    0.10912008    0.11130000    0.60500000    -0.32000000
