#======================================================================
# Crystal Data Generated By AuToFF
#----------------------------------------------------------------------

data_AuToFF_phase_1

_cell_length_a                         66.5298
_cell_length_b                         66.5298
_cell_length_c                         32.3478
_cell_angle_alpha                      90.00
_cell_angle_beta                       90.00
_cell_angle_gamma                      90.00
_symmetry_space_group_name_H-M_alt     'P 1'
_symmetry_space_group_IT_number        1

loop_
_space_group_symop_operation_xyz
   'x, y, z'

loop_
   _atom_site_label
   _atom_site_type_symbol
   _atom_site_fract_x
   _atom_site_fract_y
   _atom_site_fract_z
   _atom_site_charge
opls_145-0    C    0.91336003    0.99609002    0.53902986    -0.08240000
opls_145-1    C    0.89178999    0.99518998    0.53899987    -0.10410000
opls_145-2    C    0.81440001    0.00832995    0.46124002    -0.08300000
opls_700-3    C    0.55358005    0.99856996    0.11187005    0.07180000
opls_145-4    C    0.56253994    0.01691002    0.12682995    -0.08310000
opls_145-5    C    0.57704006    0.01634005    0.16012990    -0.10570000
opls_145-6    C    0.58263996    0.99754005    0.17917014    0.22880000
opls_145-7    C    0.57399000    0.97906998    0.16323985    -0.10460000
opls_145-8    C    0.55949995    0.97965002    0.12990992    -0.08310000
opls_142-9    C    0.60051000    0.98306999    0.24148999    0.03920000
opls_700-10    C    0.61532005    0.98569994    0.27720989    0.08150000
opls_145-11    C    0.61740994    0.96993994    0.30784999    -0.08240000
opls_145-12    C    0.63072007    0.97232999    0.34286999    -0.08240000
opls_700-13    C    0.64229999    0.99054995    0.34792011    0.07320000
opls_145-14    C    0.64044007    0.00619993    0.31679001    -0.08240000
opls_145-15    C    0.62708005    0.00381994    0.28179011    -0.08240000
opls_700-16    C    0.65581003    0.99339003    0.38613012    0.07320000
opls_145-17    C    0.66738003    0.97676996    0.40261996    -0.08240000
opls_145-18    C    0.67933993    0.97923998    0.43970007    -0.10560000
opls_916-19    C    0.67999994    0.99835006    0.46075004    0.22780000
opls_145-20    C    0.66878993    0.01504995    0.44419991    -0.10570000
opls_145-21    C    0.65677997    0.01260007    0.40719987    -0.08240000
opls_145-22    C    0.79284997    0.00700994    0.53889013    -0.08150000
opls_145-23    C    0.74652998    0.00432994    0.53878007    -0.08140000
opls_145-24    C    0.72499992    0.00294996    0.53872010    -0.10410000
opls_507-25    C    0.00035999    0.51664006    0.90880987    0.22330000
opls_507-26    C    0.00083000    0.54386997    0.03467005    0.22520000
opls_716-27    C    0.00135999    0.56436995    0.02194987    -0.10430000
opls_716-28    C    0.51051995    0.99977995    0.86609012    -0.10430000
opls_700-29    C    0.46253994    0.00079994    0.07797006    -0.10860000
opls_700-30    C    0.99760994    0.05290005    0.50000000    -0.10990000
opls_507-31    C    0.97887007    0.04184005    0.50000000    0.21730000
opls_716-32    C    0.95960998    0.05115993    0.50000000    -0.10420000
opls_700-33    C    0.92421997    0.99658003    0.50000000    0.07320000
opls_145-34    C    0.88095004    0.99482999    0.50000000    0.22710000
opls_700-35    C    0.78138999    0.00634994    0.50000000    0.07840000
opls_700-36    C    0.75798003    0.00496995    0.50000000    0.07760000
opls_916-37    C    0.71385995    0.00203999    0.50000000    0.23210000
opls_507-38    C    0.95641998    0.01727001    0.50000000    0.23320000
opls_716-39    C    0.94539996    0.03561006    0.50000000    -0.10420000
opls_142-40    C    0.84775995    0.01053994    0.50000000    0.03790000
opls_700-41    C    0.82521006    0.00898004    0.50000000    0.08640000
opls_145-42    C    0.08663997    0.00390998    0.53902986    -0.08240000
opls_145-43    C    0.10821001    0.00481002    0.53899987    -0.10410000
opls_145-44    C    0.18559999    0.99167005    0.46124002    -0.08300000
opls_700-45    C    0.44641995    0.00143004    0.11187005    0.07180000
opls_145-46    C    0.43746006    0.98308998    0.12682995    -0.08310000
opls_145-47    C    0.42295994    0.98365995    0.16012990    -0.10570000
opls_145-48    C    0.41736004    0.00245995    0.17917014    0.22890000
opls_145-49    C    0.42601000    0.02093002    0.16323985    -0.10460000
opls_145-50    C    0.44050005    0.02034998    0.12990992    -0.08310000
opls_142-51    C    0.39949000    0.01693001    0.24148999    0.03920000
opls_700-52    C    0.38467995    0.01430006    0.27720989    0.08150000
opls_145-53    C    0.38259006    0.03006006    0.30784999    -0.08240000
opls_145-54    C    0.36927993    0.02767001    0.34286999    -0.08240000
opls_700-55    C    0.35770001    0.00945005    0.34792011    0.07320000
opls_145-56    C    0.35955993    0.99380007    0.31679001    -0.08240000
opls_145-57    C    0.37291995    0.99618006    0.28179011    -0.08240000
opls_700-58    C    0.34418997    0.00660997    0.38613012    0.07320000
opls_145-59    C    0.33261997    0.02323004    0.40261996    -0.08240000
opls_145-60    C    0.32066007    0.02076002    0.43970007    -0.10560000
opls_916-61    C    0.32000006    0.00164994    0.46075004    0.22770000
opls_145-62    C    0.33121007    0.98495005    0.44419991    -0.10570000
opls_145-63    C    0.34322003    0.98739993    0.40719987    -0.08240000
opls_145-64    C    0.20715003    0.99299006    0.53889013    -0.08150000
opls_145-65    C    0.25347002    0.99567006    0.53878007    -0.08140000
opls_145-66    C    0.27499992    0.99705004    0.53872010    -0.10410000
opls_507-67    C    0.99964001    0.48335994    0.90880987    0.22330000
opls_507-68    C    0.99917000    0.45613003    0.03467005    0.22520000
opls_716-69    C    0.99864001    0.43563005    0.02194987    -0.10430000
opls_716-70    C    0.48948005    0.00022005    0.86609012    -0.10430000
opls_700-71    C    0.53746006    0.99920006    0.07797006    -0.10860000
opls_700-72    C    0.00239006    0.94709995    0.50000000    -0.10980000
opls_507-73    C    0.02112993    0.95815995    0.50000000    0.21730000
opls_716-74    C    0.04039002    0.94884007    0.50000000    -0.10420000
opls_700-75    C    0.07578003    0.00341997    0.50000000    0.07320000
opls_145-76    C    0.11904996    0.00517001    0.50000000    0.22710000
opls_700-77    C    0.21861001    0.99365006    0.50000000    0.07840000
opls_700-78    C    0.24201997    0.99503005    0.50000000    0.07770000
opls_916-79    C    0.28614005    0.99796001    0.50000000    0.23220000
opls_507-80    C    0.04358002    0.98272999    0.50000000    0.23320000
opls_716-81    C    0.05460004    0.96438994    0.50000000    -0.10410000
opls_142-82    C    0.15224005    0.98946006    0.50000000    0.03790000
opls_700-83    C    0.17478994    0.99101996    0.50000000    0.08640000
opls_145-84    C    0.00390998    0.91336003    0.53902986    -0.08240000
opls_145-85    C    0.00481002    0.89178999    0.53899987    -0.10410000
opls_145-86    C    0.99167005    0.81440001    0.46124002    -0.08300000
opls_700-87    C    0.00143004    0.55358005    0.11187005    0.07180000
opls_145-88    C    0.98308998    0.56253994    0.12682995    -0.08310000
opls_145-89    C    0.98365995    0.57704006    0.16012990    -0.10570000
opls_145-90    C    0.00245995    0.58263996    0.17917014    0.22890000
opls_145-91    C    0.02093002    0.57399000    0.16323985    -0.10460000
opls_145-92    C    0.02034998    0.55949995    0.12990992    -0.08310000
opls_142-93    C    0.01693001    0.60051000    0.24148999    0.03920000
opls_700-94    C    0.01430006    0.61532005    0.27720989    0.08150000
opls_145-95    C    0.03006006    0.61740994    0.30784999    -0.08240000
opls_145-96    C    0.02767001    0.63072007    0.34286999    -0.08240000
opls_700-97    C    0.00945005    0.64229999    0.34792011    0.07330000
opls_145-98    C    0.99380007    0.64044007    0.31679001    -0.08240000
opls_145-99    C    0.99618006    0.62708005    0.28179011    -0.08240000
opls_700-100    C    0.00660997    0.65581003    0.38613012    0.07320000
opls_145-101    C    0.02323004    0.66738003    0.40261996    -0.08240000
opls_145-102    C    0.02076002    0.67933993    0.43970007    -0.10570000
opls_916-103    C    0.00164994    0.67999994    0.46075004    0.22770000
opls_145-104    C    0.98495005    0.66878993    0.44419991    -0.10570000
opls_145-105    C    0.98739993    0.65677997    0.40719987    -0.08240000
opls_145-106    C    0.99299006    0.79284997    0.53889013    -0.08150000
opls_145-107    C    0.99567006    0.74652998    0.53878007    -0.08130000
opls_145-108    C    0.99705004    0.72499992    0.53872010    -0.10410000
opls_507-109    C    0.48335994    0.00035999    0.90880987    0.22330000
opls_507-110    C    0.45613003    0.00083000    0.03467005    0.22520000
opls_716-111    C    0.43563005    0.00135999    0.02194987    -0.10430000
opls_716-112    C    0.00022005    0.51051995    0.86609012    -0.10430000
opls_700-113    C    0.99920006    0.46253994    0.07797006    -0.10850000
opls_700-114    C    0.94709995    0.99760994    0.50000000    -0.10990000
opls_507-115    C    0.95815995    0.97887007    0.50000000    0.21730000
opls_716-116    C    0.94884007    0.95960998    0.50000000    -0.10410000
opls_700-117    C    0.00341997    0.92421997    0.50000000    0.07320000
opls_145-118    C    0.00517001    0.88095004    0.50000000    0.22710000
opls_700-119    C    0.99365006    0.78138999    0.50000000    0.07840000
opls_700-120    C    0.99503005    0.75798003    0.50000000    0.07760000
opls_916-121    C    0.99796001    0.71385995    0.50000000    0.23210000
opls_507-122    C    0.98272999    0.95641998    0.50000000    0.23320000
opls_716-123    C    0.96438994    0.94539996    0.50000000    -0.10420000
opls_142-124    C    0.98946006    0.84775995    0.50000000    0.03790000
opls_700-125    C    0.99101996    0.82521006    0.50000000    0.08640000
opls_145-126    C    0.99609002    0.08663997    0.53902986    -0.08240000
opls_145-127    C    0.99518998    0.10821001    0.53899987    -0.10410000
opls_145-128    C    0.00832995    0.18559999    0.46124002    -0.08290000
opls_700-129    C    0.99856996    0.44641995    0.11187005    0.07180000
opls_145-130    C    0.01691002    0.43746006    0.12682995    -0.08310000
opls_145-131    C    0.01634005    0.42295994    0.16012990    -0.10560000
opls_145-132    C    0.99754005    0.41736004    0.17917014    0.22880000
opls_145-133    C    0.97906998    0.42601000    0.16323985    -0.10460000
opls_145-134    C    0.97965002    0.44050005    0.12990992    -0.08310000
opls_142-135    C    0.98306999    0.39949000    0.24148999    0.03920000
opls_700-136    C    0.98569994    0.38467995    0.27720989    0.08150000
opls_145-137    C    0.96993994    0.38259006    0.30784999    -0.08240000
opls_145-138    C    0.97232999    0.36927993    0.34286999    -0.08240000
opls_700-139    C    0.99054995    0.35770001    0.34792011    0.07320000
opls_145-140    C    0.00619993    0.35955993    0.31679001    -0.08240000
opls_145-141    C    0.00381994    0.37291995    0.28179011    -0.08240000
opls_700-142    C    0.99339003    0.34418997    0.38613012    0.07320000
opls_145-143    C    0.97676996    0.33261997    0.40261996    -0.08240000
opls_145-144    C    0.97923998    0.32066007    0.43970007    -0.10570000
opls_916-145    C    0.99835006    0.32000006    0.46075004    0.22770000
opls_145-146    C    0.01504995    0.33121007    0.44419991    -0.10570000
opls_145-147    C    0.01260007    0.34322003    0.40719987    -0.08240000
opls_145-148    C    0.00700994    0.20715003    0.53889013    -0.08150000
opls_145-149    C    0.00432994    0.25347002    0.53878007    -0.08140000
opls_145-150    C    0.00294996    0.27499992    0.53872010    -0.10410000
opls_507-151    C    0.51664006    0.99964001    0.90880987    0.22330000
opls_507-152    C    0.54386997    0.99917000    0.03467005    0.22520000
opls_716-153    C    0.56436995    0.99864001    0.02194987    -0.10430000
opls_716-154    C    0.99977995    0.48948005    0.86609012    -0.10430000
opls_700-155    C    0.00079994    0.53746006    0.07797006    -0.10860000
opls_700-156    C    0.05290005    0.00239006    0.50000000    -0.10990000
opls_507-157    C    0.04184005    0.02112993    0.50000000    0.21730000
opls_716-158    C    0.05115993    0.04039002    0.50000000    -0.10420000
opls_700-159    C    0.99658003    0.07578003    0.50000000    0.07330000
opls_145-160    C    0.99482999    0.11904996    0.50000000    0.22710000
opls_700-161    C    0.00634994    0.21861001    0.50000000    0.07840000
opls_700-162    C    0.00496995    0.24201997    0.50000000    0.07760000
opls_916-163    C    0.00203999    0.28614005    0.50000000    0.23210000
opls_507-164    C    0.01727001    0.04358002    0.50000000    0.23320000
opls_716-165    C    0.03561006    0.05460004    0.50000000    -0.10420000
opls_142-166    C    0.01053994    0.15224005    0.50000000    0.03790000
opls_700-167    C    0.00898004    0.17478994    0.50000000    0.08640000
opls_145-168    C    0.08663997    0.00390998    0.46097014    -0.08230000
opls_145-169    C    0.10821001    0.00481002    0.46100013    -0.10400000
opls_145-170    C    0.18559999    0.99167005    0.53875998    -0.08300000
opls_700-171    C    0.44641995    0.00143004    0.88812995    0.07180000
opls_145-172    C    0.43746006    0.98308998    0.87317005    -0.08310000
opls_145-173    C    0.42295994    0.98365995    0.83987010    -0.10570000
opls_145-174    C    0.41736004    0.00245995    0.82082986    0.22880000
opls_145-175    C    0.42601000    0.02093002    0.83676015    -0.10460000
opls_145-176    C    0.44050005    0.02034998    0.87009008    -0.08310000
opls_142-177    C    0.39949000    0.01693001    0.75851001    0.03920000
opls_700-178    C    0.38467995    0.01430006    0.72279011    0.08150000
opls_145-179    C    0.38259006    0.03006006    0.69215001    -0.08240000
opls_145-180    C    0.36927993    0.02767001    0.65713001    -0.08240000
opls_700-181    C    0.35770001    0.00945005    0.65207989    0.07320000
opls_145-182    C    0.35955993    0.99380007    0.68320999    -0.08240000
opls_145-183    C    0.37291995    0.99618006    0.71820989    -0.08240000
opls_700-184    C    0.34418997    0.00660997    0.61386988    0.07320000
opls_145-185    C    0.33261997    0.02323004    0.59738004    -0.08240000
opls_145-186    C    0.32066007    0.02076002    0.56029993    -0.10570000
opls_916-187    C    0.32000006    0.00164994    0.53924996    0.22770000
opls_145-188    C    0.33121007    0.98495005    0.55580009    -0.10570000
opls_145-189    C    0.34322003    0.98739993    0.59280013    -0.08240000
opls_145-190    C    0.20715003    0.99299006    0.46110987    -0.08150000
opls_145-191    C    0.25347002    0.99567006    0.46121993    -0.08140000
opls_145-192    C    0.27499992    0.99705004    0.46127990    -0.10410000
opls_507-193    C    0.99964001    0.48335994    0.09119013    0.22330000
opls_507-194    C    0.99917000    0.45613003    0.96532995    0.22520000
opls_716-195    C    0.99864001    0.43563005    0.97805013    -0.10430000
opls_716-196    C    0.48948005    0.00022005    0.13390988    -0.10430000
opls_700-197    C    0.53746006    0.99920006    0.92202994    -0.10860000
opls_145-198    C    0.91336003    0.99609002    0.46097014    -0.08240000
opls_145-199    C    0.89178999    0.99518998    0.46100013    -0.10400000
opls_145-200    C    0.81440001    0.00832995    0.53875998    -0.08300000
opls_700-201    C    0.55358005    0.99856996    0.88812995    0.07180000
opls_145-202    C    0.56253994    0.01691002    0.87317005    -0.08310000
opls_145-203    C    0.57704006    0.01634005    0.83987010    -0.10570000
opls_145-204    C    0.58263996    0.99754005    0.82082986    0.22880000
opls_145-205    C    0.57399000    0.97906998    0.83676015    -0.10460000
opls_145-206    C    0.55949995    0.97965002    0.87009008    -0.08300000
opls_142-207    C    0.60051000    0.98306999    0.75851001    0.03920000
opls_700-208    C    0.61532005    0.98569994    0.72279011    0.08150000
opls_145-209    C    0.61740994    0.96993994    0.69215001    -0.08240000
opls_145-210    C    0.63072007    0.97232999    0.65713001    -0.08240000
opls_700-211    C    0.64229999    0.99054995    0.65207989    0.07320000
opls_145-212    C    0.64044007    0.00619993    0.68320999    -0.08240000
opls_145-213    C    0.62708005    0.00381994    0.71820989    -0.08240000
opls_700-214    C    0.65581003    0.99339003    0.61386988    0.07320000
opls_145-215    C    0.66738003    0.97676996    0.59738004    -0.08240000
opls_145-216    C    0.67933993    0.97923998    0.56029993    -0.10570000
opls_916-217    C    0.67999994    0.99835006    0.53924996    0.22780000
opls_145-218    C    0.66878993    0.01504995    0.55580009    -0.10570000
opls_145-219    C    0.65677997    0.01260007    0.59280013    -0.08240000
opls_145-220    C    0.79284997    0.00700994    0.46110987    -0.08150000
opls_145-221    C    0.74652998    0.00432994    0.46121993    -0.08140000
opls_145-222    C    0.72499992    0.00294996    0.46127990    -0.10410000
opls_507-223    C    0.00035999    0.51664006    0.09119013    0.22330000
opls_507-224    C    0.00083000    0.54386997    0.96532995    0.22520000
opls_716-225    C    0.00135999    0.56436995    0.97805013    -0.10430000
opls_716-226    C    0.51051995    0.99977995    0.13390988    -0.10430000
opls_700-227    C    0.46253994    0.00079994    0.92202994    -0.10860000
opls_145-228    C    0.99609002    0.08663997    0.46097014    -0.08240000
opls_145-229    C    0.99518998    0.10821001    0.46100013    -0.10410000
opls_145-230    C    0.00832995    0.18559999    0.53875998    -0.08300000
opls_700-231    C    0.99856996    0.44641995    0.88812995    0.07180000
opls_145-232    C    0.01691002    0.43746006    0.87317005    -0.08310000
opls_145-233    C    0.01634005    0.42295994    0.83987010    -0.10570000
opls_145-234    C    0.99754005    0.41736004    0.82082986    0.22880000
opls_145-235    C    0.97906998    0.42601000    0.83676015    -0.10460000
opls_145-236    C    0.97965002    0.44050005    0.87009008    -0.08310000
opls_142-237    C    0.98306999    0.39949000    0.75851001    0.03920000
opls_700-238    C    0.98569994    0.38467995    0.72279011    0.08150000
opls_145-239    C    0.96993994    0.38259006    0.69215001    -0.08240000
opls_145-240    C    0.97232999    0.36927993    0.65713001    -0.08240000
opls_700-241    C    0.99054995    0.35770001    0.65207989    0.07320000
opls_145-242    C    0.00619993    0.35955993    0.68320999    -0.08240000
opls_145-243    C    0.00381994    0.37291995    0.71820989    -0.08240000
opls_700-244    C    0.99339003    0.34418997    0.61386988    0.07320000
opls_145-245    C    0.97676996    0.33261997    0.59738004    -0.08240000
opls_145-246    C    0.97923998    0.32066007    0.56029993    -0.10570000
opls_916-247    C    0.99835006    0.32000006    0.53924996    0.22770000
opls_145-248    C    0.01504995    0.33121007    0.55580009    -0.10570000
opls_145-249    C    0.01260007    0.34322003    0.59280013    -0.08240000
opls_145-250    C    0.00700994    0.20715003    0.46110987    -0.08150000
opls_145-251    C    0.00432994    0.25347002    0.46121993    -0.08140000
opls_145-252    C    0.00294996    0.27499992    0.46127990    -0.10410000
opls_507-253    C    0.51664006    0.99964001    0.09119013    0.22330000
opls_507-254    C    0.54386997    0.99917000    0.96532995    0.22520000
opls_716-255    C    0.56436995    0.99864001    0.97805013    -0.10430000
opls_716-256    C    0.99977995    0.48948005    0.13390988    -0.10430000
opls_700-257    C    0.00079994    0.53746006    0.92202994    -0.10860000
opls_145-258    C    0.00390998    0.91336003    0.46097014    -0.08240000
opls_145-259    C    0.00481002    0.89178999    0.46100013    -0.10410000
opls_145-260    C    0.99167005    0.81440001    0.53875998    -0.08290000
opls_700-261    C    0.00143004    0.55358005    0.88812995    0.07180000
opls_145-262    C    0.98308998    0.56253994    0.87317005    -0.08310000
opls_145-263    C    0.98365995    0.57704006    0.83987010    -0.10570000
opls_145-264    C    0.00245995    0.58263996    0.82082986    0.22880000
opls_145-265    C    0.02093002    0.57399000    0.83676015    -0.10460000
opls_145-266    C    0.02034998    0.55949995    0.87009008    -0.08310000
opls_142-267    C    0.01693001    0.60051000    0.75851001    0.03920000
opls_700-268    C    0.01430006    0.61532005    0.72279011    0.08150000
opls_145-269    C    0.03006006    0.61740994    0.69215001    -0.08240000
opls_145-270    C    0.02767001    0.63072007    0.65713001    -0.08240000
opls_700-271    C    0.00945005    0.64229999    0.65207989    0.07320000
opls_145-272    C    0.99380007    0.64044007    0.68320999    -0.08240000
opls_145-273    C    0.99618006    0.62708005    0.71820989    -0.08240000
opls_700-274    C    0.00660997    0.65581003    0.61386988    0.07320000
opls_145-275    C    0.02323004    0.66738003    0.59738004    -0.08240000
opls_145-276    C    0.02076002    0.67933993    0.56029993    -0.10570000
opls_916-277    C    0.00164994    0.67999994    0.53924996    0.22770000
opls_145-278    C    0.98495005    0.66878993    0.55580009    -0.10570000
opls_145-279    C    0.98739993    0.65677997    0.59280013    -0.08240000
opls_145-280    C    0.99299006    0.79284997    0.46110987    -0.08150000
opls_145-281    C    0.99567006    0.74652998    0.46121993    -0.08140000
opls_145-282    C    0.99705004    0.72499992    0.46127990    -0.10410000
opls_507-283    C    0.48335994    0.00035999    0.09119013    0.22330000
opls_507-284    C    0.45613003    0.00083000    0.96532995    0.22520000
opls_716-285    C    0.43563005    0.00135999    0.97805013    -0.10430000
opls_716-286    C    0.00022005    0.51051995    0.13390988    -0.10430000
opls_700-287    C    0.99920006    0.46253994    0.92202994    -0.10860000
opls_145-288    C    0.41336003    0.49609002    0.03902986    -0.08240000
opls_145-289    C    0.39178999    0.49518998    0.03899987    -0.10410000
opls_145-290    C    0.31440001    0.50832995    0.96124002    -0.08300000
opls_700-291    C    0.05358005    0.49856996    0.61187005    0.07180000
opls_145-292    C    0.06253994    0.51691002    0.62682995    -0.08310000
opls_145-293    C    0.07704006    0.51634005    0.66012990    -0.10570000
opls_145-294    C    0.08263996    0.49754005    0.67917014    0.22880000
opls_145-295    C    0.07399000    0.47906998    0.66323985    -0.10460000
opls_145-296    C    0.05949995    0.47965002    0.62990992    -0.08310000
opls_142-297    C    0.10051000    0.48306999    0.74148999    0.03920000
opls_700-298    C    0.11532005    0.48569994    0.77720989    0.08150000
opls_145-299    C    0.11740994    0.46993994    0.80784999    -0.08230000
opls_145-300    C    0.13072007    0.47232999    0.84286999    -0.08240000
opls_700-301    C    0.14229999    0.49054995    0.84792011    0.07320000
opls_145-302    C    0.14044007    0.50619993    0.81679001    -0.08240000
opls_145-303    C    0.12708005    0.50381994    0.78179011    -0.08230000
opls_700-304    C    0.15581003    0.49339003    0.88613012    0.07320000
opls_145-305    C    0.16738003    0.47676996    0.90261996    -0.08240000
opls_145-306    C    0.17933993    0.47923998    0.93970007    -0.10570000
opls_916-307    C    0.17999994    0.49835006    0.96075004    0.22780000
opls_145-308    C    0.16878993    0.51504995    0.94419991    -0.10570000
opls_145-309    C    0.15677997    0.51260007    0.90719987    -0.08240000
opls_145-310    C    0.29284997    0.50700994    0.03889013    -0.08150000
opls_145-311    C    0.24652998    0.50432994    0.03878007    -0.08140000
opls_145-312    C    0.22500008    0.50294996    0.03872010    -0.10410000
opls_507-313    C    0.50035999    0.01664006    0.40880987    0.22330000
opls_507-314    C    0.50083000    0.04386997    0.53467005    0.22520000
opls_716-315    C    0.50135999    0.06436995    0.52194987    -0.10430000
opls_716-316    C    0.01051995    0.49977995    0.36609012    -0.10430000
opls_700-317    C    0.96253994    0.50079994    0.57797006    -0.10860000
opls_700-318    C    0.49760994    0.55290005    0.00000000    -0.10980000
opls_507-319    C    0.47887007    0.54184005    0.00000000    0.21730000
opls_716-320    C    0.45960998    0.55115993    0.00000000    -0.10420000
opls_700-321    C    0.42421997    0.49658003    0.00000000    0.07320000
opls_145-322    C    0.38095004    0.49482999    0.00000000    0.22710000
opls_700-323    C    0.28138999    0.50634994    0.00000000    0.07840000
opls_700-324    C    0.25798003    0.50496995    0.00000000    0.07760000
opls_916-325    C    0.21385995    0.50203999    0.00000000    0.23210000
opls_507-326    C    0.45641998    0.51727001    0.00000000    0.23320000
opls_716-327    C    0.44539996    0.53561006    0.00000000    -0.10420000
opls_142-328    C    0.34775995    0.51053994    0.00000000    0.03790000
opls_700-329    C    0.32521006    0.50898004    0.00000000    0.08640000
opls_145-330    C    0.58663997    0.50390998    0.03902986    -0.08240000
opls_145-331    C    0.60821001    0.50481002    0.03899987    -0.10410000
opls_145-332    C    0.68559999    0.49167005    0.96124002    -0.08300000
opls_700-333    C    0.94641995    0.50143004    0.61187005    0.07180000
opls_145-334    C    0.93746006    0.48308998    0.62682995    -0.08310000
opls_145-335    C    0.92295994    0.48365995    0.66012990    -0.10570000
opls_145-336    C    0.91736004    0.50245995    0.67917014    0.22880000
opls_145-337    C    0.92601000    0.52093002    0.66323985    -0.10460000
opls_145-338    C    0.94050005    0.52034998    0.62990992    -0.08310000
opls_142-339    C    0.89949000    0.51693001    0.74148999    0.03920000
opls_700-340    C    0.88467995    0.51430006    0.77720989    0.08150000
opls_145-341    C    0.88259006    0.53006006    0.80784999    -0.08240000
opls_145-342    C    0.86927993    0.52767001    0.84286999    -0.08240000
opls_700-343    C    0.85770001    0.50945005    0.84792011    0.07320000
opls_145-344    C    0.85955993    0.49380007    0.81679001    -0.08230000
opls_145-345    C    0.87291995    0.49618006    0.78179011    -0.08240000
opls_700-346    C    0.84418997    0.50660997    0.88613012    0.07320000
opls_145-347    C    0.83261997    0.52323004    0.90261996    -0.08240000
opls_145-348    C    0.82066007    0.52076002    0.93970007    -0.10570000
opls_916-349    C    0.82000006    0.50164994    0.96075004    0.22770000
opls_145-350    C    0.83121007    0.48495005    0.94419991    -0.10570000
opls_145-351    C    0.84322003    0.48739993    0.90719987    -0.08240000
opls_145-352    C    0.70715003    0.49299006    0.03889013    -0.08140000
opls_145-353    C    0.75347002    0.49567006    0.03878007    -0.08140000
opls_145-354    C    0.77499992    0.49705004    0.03872010    -0.10410000
opls_507-355    C    0.49964001    0.98335994    0.40880987    0.22330000
opls_507-356    C    0.49917000    0.95613003    0.53467005    0.22520000
opls_716-357    C    0.49864001    0.93563005    0.52194987    -0.10430000
opls_716-358    C    0.98948005    0.50022005    0.36609012    -0.10430000
opls_700-359    C    0.03746006    0.49920006    0.57797006    -0.10860000
opls_700-360    C    0.50239006    0.44709995    0.00000000    -0.10990000
opls_507-361    C    0.52112993    0.45815995    0.00000000    0.21750000
opls_716-362    C    0.54039002    0.44884007    0.00000000    -0.10410000
opls_700-363    C    0.57578003    0.50341997    0.00000000    0.07320000
opls_145-364    C    0.61904996    0.50517001    0.00000000    0.22710000
opls_700-365    C    0.71861001    0.49365006    0.00000000    0.07840000
opls_700-366    C    0.74201997    0.49503005    0.00000000    0.07760000
opls_916-367    C    0.78614005    0.49796001    0.00000000    0.23210000
opls_507-368    C    0.54358002    0.48272999    0.00000000    0.23320000
opls_716-369    C    0.55460004    0.46438994    0.00000000    -0.10420000
opls_142-370    C    0.65224005    0.48946006    0.00000000    0.03790000
opls_700-371    C    0.67478994    0.49101996    0.00000000    0.08640000
opls_145-372    C    0.50390998    0.41336003    0.03902986    -0.08240000
opls_145-373    C    0.50481002    0.39178999    0.03899987    -0.10410000
opls_145-374    C    0.49167005    0.31440001    0.96124002    -0.08300000
opls_700-375    C    0.50143004    0.05358005    0.61187005    0.07180000
opls_145-376    C    0.48308998    0.06253994    0.62682995    -0.08300000
opls_145-377    C    0.48365995    0.07704006    0.66012990    -0.10570000
opls_145-378    C    0.50245995    0.08263996    0.67917014    0.22880000
opls_145-379    C    0.52093002    0.07399000    0.66323985    -0.10450000
opls_145-380    C    0.52034998    0.05949995    0.62990992    -0.08310000
opls_142-381    C    0.51693001    0.10051000    0.74148999    0.03920000
opls_700-382    C    0.51430006    0.11532005    0.77720989    0.08150000
opls_145-383    C    0.53006006    0.11740994    0.80784999    -0.08240000
opls_145-384    C    0.52767001    0.13072007    0.84286999    -0.08240000
opls_700-385    C    0.50945005    0.14229999    0.84792011    0.07330000
opls_145-386    C    0.49380007    0.14044007    0.81679001    -0.08240000
opls_145-387    C    0.49618006    0.12708005    0.78179011    -0.08240000
opls_700-388    C    0.50660997    0.15581003    0.88613012    0.07330000
opls_145-389    C    0.52323004    0.16738003    0.90261996    -0.08240000
opls_145-390    C    0.52076002    0.17933993    0.93970007    -0.10570000
opls_916-391    C    0.50164994    0.17999994    0.96075004    0.22770000
opls_145-392    C    0.48495005    0.16878993    0.94419991    -0.10570000
opls_145-393    C    0.48739993    0.15677997    0.90719987    -0.08240000
opls_145-394    C    0.49299006    0.29284997    0.03889013    -0.08150000
opls_145-395    C    0.49567006    0.24652998    0.03878007    -0.08140000
opls_145-396    C    0.49705004    0.22500008    0.03872010    -0.10410000
opls_507-397    C    0.98335994    0.50035999    0.40880987    0.22330000
opls_507-398    C    0.95613003    0.50083000    0.53467005    0.22520000
opls_716-399    C    0.93563005    0.50135999    0.52194987    -0.10430000
opls_716-400    C    0.50022005    0.01051995    0.36609012    -0.10430000
opls_700-401    C    0.49920006    0.96253994    0.57797006    -0.10860000
opls_700-402    C    0.44709995    0.49760994    0.00000000    -0.10990000
opls_507-403    C    0.45815995    0.47887007    0.00000000    0.21730000
opls_716-404    C    0.44884007    0.45960998    0.00000000    -0.10420000
opls_700-405    C    0.50341997    0.42421997    0.00000000    0.07320000
opls_145-406    C    0.50517001    0.38095004    0.00000000    0.22710000
opls_700-407    C    0.49365006    0.28138999    0.00000000    0.07840000
opls_700-408    C    0.49503005    0.25798003    0.00000000    0.07760000
opls_916-409    C    0.49796001    0.21385995    0.00000000    0.23210000
opls_507-410    C    0.48272999    0.45641998    0.00000000    0.23320000
opls_716-411    C    0.46438994    0.44539996    0.00000000    -0.10420000
opls_142-412    C    0.48946006    0.34775995    0.00000000    0.03790000
opls_700-413    C    0.49101996    0.32521006    0.00000000    0.08640000
opls_145-414    C    0.49609002    0.58663997    0.03902986    -0.08240000
opls_145-415    C    0.49518998    0.60821001    0.03899987    -0.10410000
opls_145-416    C    0.50832995    0.68559999    0.96124002    -0.08300000
opls_700-417    C    0.49856996    0.94641995    0.61187005    0.07180000
opls_145-418    C    0.51691002    0.93746006    0.62682995    -0.08310000
opls_145-419    C    0.51634005    0.92295994    0.66012990    -0.10570000
opls_145-420    C    0.49754005    0.91736004    0.67917014    0.22880000
opls_145-421    C    0.47906998    0.92601000    0.66323985    -0.10460000
opls_145-422    C    0.47965002    0.94050005    0.62990992    -0.08310000
opls_142-423    C    0.48306999    0.89949000    0.74148999    0.03920000
opls_700-424    C    0.48569994    0.88467995    0.77720989    0.08150000
opls_145-425    C    0.46993994    0.88259006    0.80784999    -0.08240000
opls_145-426    C    0.47232999    0.86927993    0.84286999    -0.08240000
opls_700-427    C    0.49054995    0.85770001    0.84792011    0.07320000
opls_145-428    C    0.50619993    0.85955993    0.81679001    -0.08240000
opls_145-429    C    0.50381994    0.87291995    0.78179011    -0.08240000
opls_700-430    C    0.49339003    0.84418997    0.88613012    0.07320000
opls_145-431    C    0.47676996    0.83261997    0.90261996    -0.08230000
opls_145-432    C    0.47923998    0.82066007    0.93970007    -0.10570000
opls_916-433    C    0.49835006    0.82000006    0.96075004    0.22770000
opls_145-434    C    0.51504995    0.83121007    0.94419991    -0.10570000
opls_145-435    C    0.51260007    0.84322003    0.90719987    -0.08240000
opls_145-436    C    0.50700994    0.70715003    0.03889013    -0.08150000
opls_145-437    C    0.50432994    0.75347002    0.03878007    -0.08130000
opls_145-438    C    0.50294996    0.77499992    0.03872010    -0.10410000
opls_507-439    C    0.01664006    0.49964001    0.40880987    0.22330000
opls_507-440    C    0.04386997    0.49917000    0.53467005    0.22520000
opls_716-441    C    0.06436995    0.49864001    0.52194987    -0.10430000
opls_716-442    C    0.49977995    0.98948005    0.36609012    -0.10430000
opls_700-443    C    0.50079994    0.03746006    0.57797006    -0.10860000
opls_700-444    C    0.55290005    0.50239006    0.00000000    -0.10990000
opls_507-445    C    0.54184005    0.52112993    0.00000000    0.21730000
opls_716-446    C    0.55115993    0.54039002    0.00000000    -0.10420000
opls_700-447    C    0.49658003    0.57578003    0.00000000    0.07320000
opls_145-448    C    0.49482999    0.61904996    0.00000000    0.22720000
opls_700-449    C    0.50634994    0.71861001    0.00000000    0.07840000
opls_700-450    C    0.50496995    0.74201997    0.00000000    0.07760000
opls_916-451    C    0.50203999    0.78614005    0.00000000    0.23220000
opls_507-452    C    0.51727001    0.54358002    0.00000000    0.23320000
opls_716-453    C    0.53561006    0.55460004    0.00000000    -0.10420000
opls_142-454    C    0.51053994    0.65224005    0.00000000    0.03790000
opls_700-455    C    0.50898004    0.67478994    0.00000000    0.08640000
opls_145-456    C    0.58663997    0.50390998    0.96097014    -0.08240000
opls_145-457    C    0.60821001    0.50481002    0.96100013    -0.10410000
opls_145-458    C    0.68559999    0.49167005    0.03875998    -0.08300000
opls_700-459    C    0.94641995    0.50143004    0.38812995    0.07180000
opls_145-460    C    0.93746006    0.48308998    0.37317005    -0.08310000
opls_145-461    C    0.92295994    0.48365995    0.33987010    -0.10570000
opls_145-462    C    0.91736004    0.50245995    0.32082986    0.22880000
opls_145-463    C    0.92601000    0.52093002    0.33676015    -0.10460000
opls_145-464    C    0.94050005    0.52034998    0.37009008    -0.08310000
opls_142-465    C    0.89949000    0.51693001    0.25851001    0.03920000
opls_700-466    C    0.88467995    0.51430006    0.22279011    0.08150000
opls_145-467    C    0.88259006    0.53006006    0.19215001    -0.08220000
opls_145-468    C    0.86927993    0.52767001    0.15713001    -0.08240000
opls_700-469    C    0.85770001    0.50945005    0.15207989    0.07330000
opls_145-470    C    0.85955993    0.49380007    0.18320999    -0.08240000
opls_145-471    C    0.87291995    0.49618006    0.21820989    -0.08240000
opls_700-472    C    0.84418997    0.50660997    0.11386988    0.07320000
opls_145-473    C    0.83261997    0.52323004    0.09738004    -0.08240000
opls_145-474    C    0.82066007    0.52076002    0.06029993    -0.10570000
opls_916-475    C    0.82000006    0.50164994    0.03924996    0.22770000
opls_145-476    C    0.83121007    0.48495005    0.05580009    -0.10570000
opls_145-477    C    0.84322003    0.48739993    0.09280013    -0.08240000
opls_145-478    C    0.70715003    0.49299006    0.96110987    -0.08150000
opls_145-479    C    0.75347002    0.49567006    0.96121993    -0.08140000
opls_145-480    C    0.77499992    0.49705004    0.96127990    -0.10410000
opls_507-481    C    0.49964001    0.98335994    0.59119013    0.22330000
opls_507-482    C    0.49917000    0.95613003    0.46532995    0.22520000
opls_716-483    C    0.49864001    0.93563005    0.47805013    -0.10430000
opls_716-484    C    0.98948005    0.50022005    0.63390988    -0.10430000
opls_700-485    C    0.03746006    0.49920006    0.42202994    -0.10860000
opls_145-486    C    0.41336003    0.49609002    0.96097014    -0.08240000
opls_145-487    C    0.39178999    0.49518998    0.96100013    -0.10410000
opls_145-488    C    0.31440001    0.50832995    0.03875998    -0.08300000
opls_700-489    C    0.05358005    0.49856996    0.38812995    0.07180000
opls_145-490    C    0.06253994    0.51691002    0.37317005    -0.08310000
opls_145-491    C    0.07704006    0.51634005    0.33987010    -0.10570000
opls_145-492    C    0.08263996    0.49754005    0.32082986    0.22880000
opls_145-493    C    0.07399000    0.47906998    0.33676015    -0.10460000
opls_145-494    C    0.05949995    0.47965002    0.37009008    -0.08310000
opls_142-495    C    0.10051000    0.48306999    0.25851001    0.03920000
opls_700-496    C    0.11532005    0.48569994    0.22279011    0.08160000
opls_145-497    C    0.11740994    0.46993994    0.19215001    -0.08240000
opls_145-498    C    0.13072007    0.47232999    0.15713001    -0.08240000
opls_700-499    C    0.14229999    0.49054995    0.15207989    0.07320000
opls_145-500    C    0.14044007    0.50619993    0.18320999    -0.08240000
opls_145-501    C    0.12708005    0.50381994    0.21820989    -0.08240000
opls_700-502    C    0.15581003    0.49339003    0.11386988    0.07320000
opls_145-503    C    0.16738003    0.47676996    0.09738004    -0.08240000
opls_145-504    C    0.17933993    0.47923998    0.06029993    -0.10570000
opls_916-505    C    0.17999994    0.49835006    0.03924996    0.22780000
opls_145-506    C    0.16878993    0.51504995    0.05580009    -0.10570000
opls_145-507    C    0.15677997    0.51260007    0.09280013    -0.08240000
opls_145-508    C    0.29284997    0.50700994    0.96110987    -0.08150000
opls_145-509    C    0.24652998    0.50432994    0.96121993    -0.08140000
opls_145-510    C    0.22500008    0.50294996    0.96127990    -0.10400000
opls_507-511    C    0.50035999    0.01664006    0.59119013    0.22340000
opls_507-512    C    0.50083000    0.04386997    0.46532995    0.22520000
opls_716-513    C    0.50135999    0.06436995    0.47805013    -0.10430000
opls_716-514    C    0.01051995    0.49977995    0.63390988    -0.10430000
opls_700-515    C    0.96253994    0.50079994    0.42202994    -0.10860000
opls_145-516    C    0.49609002    0.58663997    0.96097014    -0.08240000
opls_145-517    C    0.49518998    0.60821001    0.96100013    -0.10410000
opls_145-518    C    0.50832995    0.68559999    0.03875998    -0.08300000
opls_700-519    C    0.49856996    0.94641995    0.38812995    0.07180000
opls_145-520    C    0.51691002    0.93746006    0.37317005    -0.08310000
opls_145-521    C    0.51634005    0.92295994    0.33987010    -0.10570000
opls_145-522    C    0.49754005    0.91736004    0.32082986    0.22880000
opls_145-523    C    0.47906998    0.92601000    0.33676015    -0.10460000
opls_145-524    C    0.47965002    0.94050005    0.37009008    -0.08310000
opls_142-525    C    0.48306999    0.89949000    0.25851001    0.03920000
opls_700-526    C    0.48569994    0.88467995    0.22279011    0.08150000
opls_145-527    C    0.46993994    0.88259006    0.19215001    -0.08240000
opls_145-528    C    0.47232999    0.86927993    0.15713001    -0.08240000
opls_700-529    C    0.49054995    0.85770001    0.15207989    0.07330000
opls_145-530    C    0.50619993    0.85955993    0.18320999    -0.08240000
opls_145-531    C    0.50381994    0.87291995    0.21820989    -0.08240000
opls_700-532    C    0.49339003    0.84418997    0.11386988    0.07320000
opls_145-533    C    0.47676996    0.83261997    0.09738004    -0.08240000
opls_145-534    C    0.47923998    0.82066007    0.06029993    -0.10570000
opls_916-535    C    0.49835006    0.82000006    0.03924996    0.22780000
opls_145-536    C    0.51504995    0.83121007    0.05580009    -0.10570000
opls_145-537    C    0.51260007    0.84322003    0.09280013    -0.08240000
opls_145-538    C    0.50700994    0.70715003    0.96110987    -0.08150000
opls_145-539    C    0.50432994    0.75347002    0.96121993    -0.08140000
opls_145-540    C    0.50294996    0.77499992    0.96127990    -0.10410000
opls_507-541    C    0.01664006    0.49964001    0.59119013    0.22340000
opls_507-542    C    0.04386997    0.49917000    0.46532995    0.22530000
opls_716-543    C    0.06436995    0.49864001    0.47805013    -0.10430000
opls_716-544    C    0.49977995    0.98948005    0.63390988    -0.10430000
opls_700-545    C    0.50079994    0.03746006    0.42202994    -0.10860000
opls_145-546    C    0.50390998    0.41336003    0.96097014    -0.08240000
opls_145-547    C    0.50481002    0.39178999    0.96100013    -0.10410000
opls_145-548    C    0.49167005    0.31440001    0.03875998    -0.08300000
opls_700-549    C    0.50143004    0.05358005    0.38812995    0.07180000
opls_145-550    C    0.48308998    0.06253994    0.37317005    -0.08310000
opls_145-551    C    0.48365995    0.07704006    0.33987010    -0.10570000
opls_145-552    C    0.50245995    0.08263996    0.32082986    0.22890000
opls_145-553    C    0.52093002    0.07399000    0.33676015    -0.10460000
opls_145-554    C    0.52034998    0.05949995    0.37009008    -0.08300000
opls_142-555    C    0.51693001    0.10051000    0.25851001    0.03920000
opls_700-556    C    0.51430006    0.11532005    0.22279011    0.08150000
opls_145-557    C    0.53006006    0.11740994    0.19215001    -0.08240000
opls_145-558    C    0.52767001    0.13072007    0.15713001    -0.08240000
opls_700-559    C    0.50945005    0.14229999    0.15207989    0.07320000
opls_145-560    C    0.49380007    0.14044007    0.18320999    -0.08240000
opls_145-561    C    0.49618006    0.12708005    0.21820989    -0.08240000
opls_700-562    C    0.50660997    0.15581003    0.11386988    0.07320000
opls_145-563    C    0.52323004    0.16738003    0.09738004    -0.08240000
opls_145-564    C    0.52076002    0.17933993    0.06029993    -0.10570000
opls_916-565    C    0.50164994    0.17999994    0.03924996    0.22780000
opls_145-566    C    0.48495005    0.16878993    0.05580009    -0.10570000
opls_145-567    C    0.48739993    0.15677997    0.09280013    -0.08240000
opls_145-568    C    0.49299006    0.29284997    0.96110987    -0.08150000
opls_145-569    C    0.49567006    0.24652998    0.96121993    -0.08140000
opls_145-570    C    0.49705004    0.22500008    0.96127990    -0.10410000
opls_507-571    C    0.98335994    0.50035999    0.59119013    0.22330000
opls_507-572    C    0.95613003    0.50083000    0.46532995    0.22520000
opls_716-573    C    0.93563005    0.50135999    0.47805013    -0.10430000
opls_716-574    C    0.50022005    0.01051995    0.63390988    -0.10430000
opls_700-575    C    0.49920006    0.96253994    0.42202994    -0.10860000
opls_750-576    N    0.59707003    0.99796001    0.21435986    -0.20010000
opls_750-577    N    0.85890999    0.99392994    0.50000000    -0.19650000
opls_542-578    N    0.97702007    0.02098999    0.50000000    -0.26810000
opls_239-579    N    0.69148006    0.00054998    0.50000000    -0.13020000
opls_542-580    N    0.46883006    0.00049001    0.00000000    -0.25820000
opls_542-581    N    0.50000000    0.00000000    0.06472990    -0.26520000
opls_750-582    N    0.40292997    0.00203999    0.21435986    -0.20020000
opls_750-583    N    0.14109001    0.00607006    0.50000000    -0.19650000
opls_542-584    N    0.02297993    0.97901001    0.50000000    -0.26800000
opls_239-585    N    0.30851994    0.99945002    0.50000000    -0.13020000
opls_542-586    N    0.53116994    0.99950999    0.00000000    -0.25820000
opls_750-587    N    0.00203999    0.59707003    0.21435986    -0.20020000
opls_750-588    N    0.00607006    0.85890999    0.50000000    -0.19650000
opls_542-589    N    0.97901001    0.97702007    0.50000000    -0.26810000
opls_239-590    N    0.99945002    0.69148006    0.50000000    -0.13020000
opls_542-591    N    0.99950999    0.46883006    0.00000000    -0.25820000
opls_542-592    N    0.00000000    0.50000000    0.06472990    -0.26520000
opls_750-593    N    0.99796001    0.40292997    0.21435986    -0.20020000
opls_750-594    N    0.99392994    0.14109001    0.50000000    -0.19650000
opls_542-595    N    0.02098999    0.02297993    0.50000000    -0.26810000
opls_239-596    N    0.00054998    0.30851994    0.50000000    -0.13020000
opls_542-597    N    0.00049001    0.53116994    0.00000000    -0.25820000
opls_750-598    N    0.40292997    0.00203999    0.78564014    -0.20020000
opls_542-599    N    0.50000000    0.00000000    0.93527010    -0.26520000
opls_750-600    N    0.59707003    0.99796001    0.78564014    -0.20020000
opls_750-601    N    0.99796001    0.40292997    0.78564014    -0.20020000
opls_542-602    N    0.00000000    0.50000000    0.93527010    -0.26520000
opls_750-603    N    0.00203999    0.59707003    0.78564014    -0.20020000
opls_750-604    N    0.09707003    0.49796001    0.71435986    -0.20020000
opls_750-605    N    0.35890999    0.49392994    0.00000000    -0.19650000
opls_542-606    N    0.47702007    0.52098999    0.00000000    -0.26810000
opls_239-607    N    0.19148006    0.50054998    0.00000000    -0.13020000
opls_542-608    N    0.96883006    0.50049001    0.50000000    -0.25820000
opls_542-609    N    0.00000000    0.50000000    0.56472990    -0.26510000
opls_750-610    N    0.90292997    0.50203999    0.71435986    -0.20010000
opls_750-611    N    0.64109001    0.50607006    0.00000000    -0.19640000
opls_542-612    N    0.52297993    0.47901001    0.00000000    -0.26810000
opls_239-613    N    0.80851994    0.49945002    0.00000000    -0.13020000
opls_542-614    N    0.03116994    0.49950999    0.50000000    -0.25820000
opls_750-615    N    0.50203999    0.09707003    0.71435986    -0.20020000
opls_750-616    N    0.50607006    0.35890999    0.00000000    -0.19640000
opls_542-617    N    0.47901001    0.47702007    0.00000000    -0.26810000
opls_239-618    N    0.49945002    0.19148006    0.00000000    -0.13020000
opls_542-619    N    0.49950999    0.96883006    0.50000000    -0.25810000
opls_542-620    N    0.50000000    0.00000000    0.56472990    -0.26520000
opls_750-621    N    0.49796001    0.90292997    0.71435986    -0.20020000
opls_750-622    N    0.49392994    0.64109001    0.00000000    -0.19650000
opls_542-623    N    0.52098999    0.52297993    0.00000000    -0.26810000
opls_239-624    N    0.50054998    0.80851994    0.00000000    -0.13020000
opls_542-625    N    0.50049001    0.03116994    0.50000000    -0.25820000
opls_750-626    N    0.90292997    0.50203999    0.28564014    -0.20020000
opls_542-627    N    0.00000000    0.50000000    0.43527010    -0.26520000
opls_750-628    N    0.09707003    0.49796001    0.28564014    -0.20010000
opls_750-629    N    0.49796001    0.90292997    0.28564014    -0.20020000
opls_542-630    N    0.50000000    0.00000000    0.43527010    -0.26520000
opls_750-631    N    0.50203999    0.09707003    0.28564014    -0.20020000
opls_146-632    H    0.92212001    0.99643994    0.57084006    0.04500000
opls_146-633    H    0.88297996    0.99473995    0.57075010    0.04510000
opls_146-634    H    0.82323004    0.00887993    0.42952998    0.04500000
opls_146-635    H    0.55800994    0.03233002    0.11184996    0.04490000
opls_146-636    H    0.58442998    0.03127005    0.17202994    0.04490000
opls_146-637    H    0.57880003    0.96359000    0.17754005    0.04490000
opls_146-638    H    0.55251000    0.96464998    0.11742993    0.04490000
opls_144-639    H    0.59205003    0.96772995    0.23789006    0.02500000
opls_146-640    H    0.60819993    0.95502993    0.30430014    0.04500000
opls_146-641    H    0.63227005    0.95945005    0.36767014    0.04420000
opls_146-642    H    0.64986998    0.02098999    0.31995994    0.04490000
opls_146-643    H    0.62574996    0.01668004    0.25689011    0.04420000
opls_146-644    H    0.66704995    0.96115004    0.38571000    0.04490000
opls_146-645    H    0.68858993    0.96568004    0.45292014    0.04490000
opls_146-646    H    0.66944001    0.03071000    0.46092006    0.04490000
opls_146-647    H    0.64771997    0.02633001    0.39410006    0.04490000
opls_146-648    H    0.78448004    0.00645996    0.57115012    0.04510000
opls_146-649    H    0.75528996    0.00496003    0.57056987    0.04500000
opls_146-650    H    0.71647006    0.00256998    0.57081007    0.04510000
opls_547-651    H    0.00169999    0.57714994    0.04715993    0.04430000
opls_547-652    H    0.52261002    0.99954006    0.83942988    0.04420000
opls_547-653    H    0.95832003    0.06872003    0.50000000    0.04490000
opls_547-654    H    0.92780002    0.03531004    0.50000000    0.04490000
opls_144-655    H    0.85549002    0.02636007    0.50000000    0.02500000
opls_146-656    H    0.07787999    0.00356006    0.57084006    0.04500000
opls_146-657    H    0.11702004    0.00526005    0.57075010    0.04510000
opls_146-658    H    0.17676996    0.99112007    0.42952998    0.04500000
opls_146-659    H    0.44199006    0.96766998    0.11184996    0.04490000
opls_146-660    H    0.41557002    0.96872995    0.17202994    0.04490000
opls_146-661    H    0.42119997    0.03641000    0.17754005    0.04490000
opls_146-662    H    0.44749000    0.03535002    0.11742993    0.04490000
opls_144-663    H    0.40794997    0.03227005    0.23789006    0.02500000
opls_146-664    H    0.39180007    0.04497007    0.30430014    0.04490000
opls_146-665    H    0.36772995    0.04054995    0.36767014    0.04420000
opls_146-666    H    0.35013002    0.97901001    0.31995994    0.04490000
opls_146-667    H    0.37425004    0.98331996    0.25689011    0.04420000
opls_146-668    H    0.33295005    0.03884996    0.38571000    0.04490000
opls_146-669    H    0.31141007    0.03431996    0.45292014    0.04490000
opls_146-670    H    0.33055999    0.96929000    0.46092006    0.04490000
opls_146-671    H    0.35228003    0.97366999    0.39410006    0.04490000
opls_146-672    H    0.21551996    0.99354004    0.57115012    0.04510000
opls_146-673    H    0.24471004    0.99503997    0.57056987    0.04500000
opls_146-674    H    0.28352994    0.99743002    0.57081007    0.04510000
opls_547-675    H    0.99830001    0.42285006    0.04715993    0.04420000
opls_547-676    H    0.47738998    0.00045994    0.83942988    0.04420000
opls_547-677    H    0.04167997    0.93127997    0.50000000    0.04490000
opls_547-678    H    0.07219998    0.96468996    0.50000000    0.04490000
opls_144-679    H    0.14450998    0.97363993    0.50000000    0.02500000
opls_146-680    H    0.00356006    0.92212001    0.57084006    0.04500000
opls_146-681    H    0.00526005    0.88297996    0.57075010    0.04510000
opls_146-682    H    0.99112007    0.82323004    0.42952998    0.04500000
opls_146-683    H    0.96766998    0.55800994    0.11184996    0.04490000
opls_146-684    H    0.96872995    0.58442998    0.17202994    0.04490000
opls_146-685    H    0.03641000    0.57880003    0.17754005    0.04490000
opls_146-686    H    0.03535002    0.55251000    0.11742993    0.04490000
opls_144-687    H    0.03227005    0.59205003    0.23789006    0.02500000
opls_146-688    H    0.04497007    0.60819993    0.30430014    0.04490000
opls_146-689    H    0.04054995    0.63227005    0.36767014    0.04420000
opls_146-690    H    0.97901001    0.64986998    0.31995994    0.04490000
opls_146-691    H    0.98331996    0.62574996    0.25689011    0.04420000
opls_146-692    H    0.03884996    0.66704995    0.38571000    0.04490000
opls_146-693    H    0.03431996    0.68858993    0.45292014    0.04490000
opls_146-694    H    0.96929000    0.66944001    0.46092006    0.04490000
opls_146-695    H    0.97366999    0.64771997    0.39410006    0.04490000
opls_146-696    H    0.99354004    0.78448004    0.57115012    0.04510000
opls_146-697    H    0.99503997    0.75528996    0.57056987    0.04500000
opls_146-698    H    0.99743002    0.71647006    0.57081007    0.04510000
opls_547-699    H    0.42285006    0.00169999    0.04715993    0.04420000
opls_547-700    H    0.00045994    0.52261002    0.83942988    0.04420000
opls_547-701    H    0.93127997    0.95832003    0.50000000    0.04490000
opls_547-702    H    0.96468996    0.92780002    0.50000000    0.04490000
opls_144-703    H    0.97363993    0.85549002    0.50000000    0.02500000
opls_146-704    H    0.99643994    0.07787999    0.57084006    0.04500000
opls_146-705    H    0.99473995    0.11702004    0.57075010    0.04510000
opls_146-706    H    0.00887993    0.17676996    0.42952998    0.04500000
opls_146-707    H    0.03233002    0.44199006    0.11184996    0.04490000
opls_146-708    H    0.03127005    0.41557002    0.17202994    0.04490000
opls_146-709    H    0.96359000    0.42119997    0.17754005    0.04490000
opls_146-710    H    0.96464998    0.44749000    0.11742993    0.04490000
opls_144-711    H    0.96772995    0.40794997    0.23789006    0.02500000
opls_146-712    H    0.95502993    0.39180007    0.30430014    0.04490000
opls_146-713    H    0.95945005    0.36772995    0.36767014    0.04420000
opls_146-714    H    0.02098999    0.35013002    0.31995994    0.04490000
opls_146-715    H    0.01668004    0.37425004    0.25689011    0.04420000
opls_146-716    H    0.96115004    0.33295005    0.38571000    0.04490000
opls_146-717    H    0.96568004    0.31141007    0.45292014    0.04490000
opls_146-718    H    0.03071000    0.33055999    0.46092006    0.04490000
opls_146-719    H    0.02633001    0.35228003    0.39410006    0.04500000
opls_146-720    H    0.00645996    0.21551996    0.57115012    0.04510000
opls_146-721    H    0.00496003    0.24471004    0.57056987    0.04500000
opls_146-722    H    0.00256998    0.28352994    0.57081007    0.04510000
opls_547-723    H    0.57714994    0.99830001    0.04715993    0.04420000
opls_547-724    H    0.99954006    0.47738998    0.83942988    0.04420000
opls_547-725    H    0.06872003    0.04167997    0.50000000    0.04490000
opls_547-726    H    0.03531004    0.07219998    0.50000000    0.04490000
opls_144-727    H    0.02636007    0.14450998    0.50000000    0.02500000
opls_146-728    H    0.07787999    0.00356006    0.42915994    0.04500000
opls_146-729    H    0.11702004    0.00526005    0.42924990    0.04510000
opls_146-730    H    0.17676996    0.99112007    0.57047002    0.04500000
opls_146-731    H    0.44199006    0.96766998    0.88815004    0.04490000
opls_146-732    H    0.41557002    0.96872995    0.82797006    0.04490000
opls_146-733    H    0.42119997    0.03641000    0.82245995    0.04490000
opls_146-734    H    0.44749000    0.03535002    0.88257007    0.04490000
opls_144-735    H    0.40794997    0.03227005    0.76210994    0.02500000
opls_146-736    H    0.39180007    0.04497007    0.69569986    0.04490000
opls_146-737    H    0.36772995    0.04054995    0.63232986    0.04420000
opls_146-738    H    0.35013002    0.97901001    0.68004006    0.04490000
opls_146-739    H    0.37425004    0.98331996    0.74310989    0.04420000
opls_146-740    H    0.33295005    0.03884996    0.61429000    0.04490000
opls_146-741    H    0.31141007    0.03431996    0.54707986    0.04490000
opls_146-742    H    0.33055999    0.96929000    0.53907994    0.04490000
opls_146-743    H    0.35228003    0.97366999    0.60589994    0.04490000
opls_146-744    H    0.21551996    0.99354004    0.42884988    0.04510000
opls_146-745    H    0.24471004    0.99503997    0.42943013    0.04500000
opls_146-746    H    0.28352994    0.99743002    0.42918993    0.04510000
opls_547-747    H    0.99830001    0.42285006    0.95284007    0.04420000
opls_547-748    H    0.47738998    0.00045994    0.16057012    0.04420000
opls_146-749    H    0.92212001    0.99643994    0.42915994    0.04500000
opls_146-750    H    0.88297996    0.99473995    0.42924990    0.04510000
opls_146-751    H    0.82323004    0.00887993    0.57047002    0.04500000
opls_146-752    H    0.55800994    0.03233002    0.88815004    0.04490000
opls_146-753    H    0.58442998    0.03127005    0.82797006    0.04490000
opls_146-754    H    0.57880003    0.96359000    0.82245995    0.04490000
opls_146-755    H    0.55251000    0.96464998    0.88257007    0.04490000
opls_144-756    H    0.59205003    0.96772995    0.76210994    0.02500000
opls_146-757    H    0.60819993    0.95502993    0.69569986    0.04490000
opls_146-758    H    0.63227005    0.95945005    0.63232986    0.04420000
opls_146-759    H    0.64986998    0.02098999    0.68004006    0.04490000
opls_146-760    H    0.62574996    0.01668004    0.74310989    0.04420000
opls_146-761    H    0.66704995    0.96115004    0.61429000    0.04490000
opls_146-762    H    0.68858993    0.96568004    0.54707986    0.04490000
opls_146-763    H    0.66944001    0.03071000    0.53907994    0.04490000
opls_146-764    H    0.64771997    0.02633001    0.60589994    0.04490000
opls_146-765    H    0.78448004    0.00645996    0.42884988    0.04520000
opls_146-766    H    0.75528996    0.00496003    0.42943013    0.04500000
opls_146-767    H    0.71647006    0.00256998    0.42918993    0.04510000
opls_547-768    H    0.00169999    0.57714994    0.95284007    0.04420000
opls_547-769    H    0.52261002    0.99954006    0.16057012    0.04420000
opls_146-770    H    0.99643994    0.07787999    0.42915994    0.04500000
opls_146-771    H    0.99473995    0.11702004    0.42924990    0.04510000
opls_146-772    H    0.00887993    0.17676996    0.57047002    0.04500000
opls_146-773    H    0.03233002    0.44199006    0.88815004    0.04490000
opls_146-774    H    0.03127005    0.41557002    0.82797006    0.04490000
opls_146-775    H    0.96359000    0.42119997    0.82245995    0.04490000
opls_146-776    H    0.96464998    0.44749000    0.88257007    0.04490000
opls_144-777    H    0.96772995    0.40794997    0.76210994    0.02500000
opls_146-778    H    0.95502993    0.39180007    0.69569986    0.04490000
opls_146-779    H    0.95945005    0.36772995    0.63232986    0.04420000
opls_146-780    H    0.02098999    0.35013002    0.68004006    0.04490000
opls_146-781    H    0.01668004    0.37425004    0.74310989    0.04420000
opls_146-782    H    0.96115004    0.33295005    0.61429000    0.04490000
opls_146-783    H    0.96568004    0.31141007    0.54707986    0.04490000
opls_146-784    H    0.03071000    0.33055999    0.53907994    0.04490000
opls_146-785    H    0.02633001    0.35228003    0.60589994    0.04490000
opls_146-786    H    0.00645996    0.21551996    0.42884988    0.04510000
opls_146-787    H    0.00496003    0.24471004    0.42943013    0.04500000
opls_146-788    H    0.00256998    0.28352994    0.42918993    0.04510000
opls_547-789    H    0.57714994    0.99830001    0.95284007    0.04420000
opls_547-790    H    0.99954006    0.47738998    0.16057012    0.04420000
opls_146-791    H    0.00356006    0.92212001    0.42915994    0.04500000
opls_146-792    H    0.00526005    0.88297996    0.42924990    0.04510000
opls_146-793    H    0.99112007    0.82323004    0.57047002    0.04500000
opls_146-794    H    0.96766998    0.55800994    0.88815004    0.04490000
opls_146-795    H    0.96872995    0.58442998    0.82797006    0.04490000
opls_146-796    H    0.03641000    0.57880003    0.82245995    0.04490000
opls_146-797    H    0.03535002    0.55251000    0.88257007    0.04490000
opls_144-798    H    0.03227005    0.59205003    0.76210994    0.02500000
opls_146-799    H    0.04497007    0.60819993    0.69569986    0.04490000
opls_146-800    H    0.04054995    0.63227005    0.63232986    0.04420000
opls_146-801    H    0.97901001    0.64986998    0.68004006    0.04490000
opls_146-802    H    0.98331996    0.62574996    0.74310989    0.04420000
opls_146-803    H    0.03884996    0.66704995    0.61429000    0.04490000
opls_146-804    H    0.03431996    0.68858993    0.54707986    0.04490000
opls_146-805    H    0.96929000    0.66944001    0.53907994    0.04490000
opls_146-806    H    0.97366999    0.64771997    0.60589994    0.04490000
opls_146-807    H    0.99354004    0.78448004    0.42884988    0.04510000
opls_146-808    H    0.99503997    0.75528996    0.42943013    0.04500000
opls_146-809    H    0.99743002    0.71647006    0.42918993    0.04510000
opls_547-810    H    0.42285006    0.00169999    0.95284007    0.04420000
opls_547-811    H    0.00045994    0.52261002    0.16057012    0.04420000
opls_146-812    H    0.42212001    0.49643994    0.07084006    0.04500000
opls_146-813    H    0.38297996    0.49473995    0.07075010    0.04510000
opls_146-814    H    0.32323004    0.50887993    0.92952998    0.04500000
opls_146-815    H    0.05800994    0.53233002    0.61184996    0.04490000
opls_146-816    H    0.08442998    0.53127005    0.67202994    0.04490000
opls_146-817    H    0.07880003    0.46359000    0.67754005    0.04490000
opls_146-818    H    0.05251000    0.46464998    0.61742993    0.04490000
opls_144-819    H    0.09205003    0.46772995    0.73789006    0.02500000
opls_146-820    H    0.10819993    0.45502993    0.80430014    0.04490000
opls_146-821    H    0.13227005    0.45945005    0.86767014    0.04420000
opls_146-822    H    0.14986998    0.52098999    0.81995994    0.04490000
opls_146-823    H    0.12574996    0.51668004    0.75689011    0.04420000
opls_146-824    H    0.16704995    0.46115004    0.88571000    0.04490000
opls_146-825    H    0.18858993    0.46568004    0.95292014    0.04490000
opls_146-826    H    0.16944001    0.53071000    0.96092006    0.04490000
opls_146-827    H    0.14771997    0.52633001    0.89410006    0.04490000
opls_146-828    H    0.28448004    0.50645996    0.07115012    0.04510000
opls_146-829    H    0.25528996    0.50496003    0.07056987    0.04500000
opls_146-830    H    0.21647006    0.50256998    0.07081007    0.04510000
opls_547-831    H    0.50169999    0.07714994    0.54715993    0.04420000
opls_547-832    H    0.02261002    0.49954006    0.33942988    0.04420000
opls_547-833    H    0.45832003    0.56872003    0.00000000    0.04490000
opls_547-834    H    0.42780002    0.53531004    0.00000000    0.04490000
opls_144-835    H    0.35549002    0.52636007    0.00000000    0.02510000
opls_146-836    H    0.57787999    0.50356006    0.07084006    0.04500000
opls_146-837    H    0.61702004    0.50526005    0.07075010    0.04510000
opls_146-838    H    0.67676996    0.49112007    0.92952998    0.04500000
opls_146-839    H    0.94199006    0.46766998    0.61184996    0.04490000
opls_146-840    H    0.91557002    0.46872995    0.67202994    0.04490000
opls_146-841    H    0.92119997    0.53641000    0.67754005    0.04490000
opls_146-842    H    0.94749000    0.53535002    0.61742993    0.04490000
opls_144-843    H    0.90794997    0.53227005    0.73789006    0.02500000
opls_146-844    H    0.89180007    0.54497007    0.80430014    0.04490000
opls_146-845    H    0.86772995    0.54054995    0.86767014    0.04420000
opls_146-846    H    0.85013002    0.47901001    0.81995994    0.04490000
opls_146-847    H    0.87425004    0.48331996    0.75689011    0.04420000
opls_146-848    H    0.83295005    0.53884996    0.88571000    0.04490000
opls_146-849    H    0.81141007    0.53431996    0.95292014    0.04490000
opls_146-850    H    0.83055999    0.46929000    0.96092006    0.04490000
opls_146-851    H    0.85228003    0.47366999    0.89410006    0.04490000
opls_146-852    H    0.71551996    0.49354004    0.07115012    0.04510000
opls_146-853    H    0.74471004    0.49503997    0.07056987    0.04500000
opls_146-854    H    0.78352994    0.49743002    0.07081007    0.04510000
opls_547-855    H    0.49830001    0.92285006    0.54715993    0.04420000
opls_547-856    H    0.97738998    0.50045994    0.33942988    0.04420000
opls_547-857    H    0.54167997    0.43127997    0.00000000    0.04490000
opls_547-858    H    0.57219998    0.46468996    0.00000000    0.04490000
opls_144-859    H    0.64450998    0.47363993    0.00000000    0.02500000
opls_146-860    H    0.50356006    0.42212001    0.07084006    0.04500000
opls_146-861    H    0.50526005    0.38297996    0.07075010    0.04510000
opls_146-862    H    0.49112007    0.32323004    0.92952998    0.04500000
opls_146-863    H    0.46766998    0.05800994    0.61184996    0.04490000
opls_146-864    H    0.46872995    0.08442998    0.67202994    0.04490000
opls_146-865    H    0.53641000    0.07880003    0.67754005    0.04490000
opls_146-866    H    0.53535002    0.05251000    0.61742993    0.04490000
opls_144-867    H    0.53227005    0.09205003    0.73789006    0.02500000
opls_146-868    H    0.54497007    0.10819993    0.80430014    0.04490000
opls_146-869    H    0.54054995    0.13227005    0.86767014    0.04420000
opls_146-870    H    0.47901001    0.14986998    0.81995994    0.04490000
opls_146-871    H    0.48331996    0.12574996    0.75689011    0.04420000
opls_146-872    H    0.53884996    0.16704995    0.88571000    0.04490000
opls_146-873    H    0.53431996    0.18858993    0.95292014    0.04490000
opls_146-874    H    0.46929000    0.16944001    0.96092006    0.04500000
opls_146-875    H    0.47366999    0.14771997    0.89410006    0.04490000
opls_146-876    H    0.49354004    0.28448004    0.07115012    0.04520000
opls_146-877    H    0.49503997    0.25528996    0.07056987    0.04500000
opls_146-878    H    0.49743002    0.21647006    0.07081007    0.04510000
opls_547-879    H    0.92285006    0.50169999    0.54715993    0.04420000
opls_547-880    H    0.50045994    0.02261002    0.33942988    0.04420000
opls_547-881    H    0.43127997    0.45832003    0.00000000    0.04490000
opls_547-882    H    0.46468996    0.42780002    0.00000000    0.04490000
opls_144-883    H    0.47363993    0.35549002    0.00000000    0.02500000
opls_146-884    H    0.49643994    0.57787999    0.07084006    0.04500000
opls_146-885    H    0.49473995    0.61702004    0.07075010    0.04510000
opls_146-886    H    0.50887993    0.67676996    0.92952998    0.04500000
opls_146-887    H    0.53233002    0.94199006    0.61184996    0.04490000
opls_146-888    H    0.53127005    0.91557002    0.67202994    0.04490000
opls_146-889    H    0.46359000    0.92119997    0.67754005    0.04490000
opls_146-890    H    0.46464998    0.94749000    0.61742993    0.04490000
opls_144-891    H    0.46772995    0.90794997    0.73789006    0.02500000
opls_146-892    H    0.45502993    0.89180007    0.80430014    0.04490000
opls_146-893    H    0.45945005    0.86772995    0.86767014    0.04420000
opls_146-894    H    0.52098999    0.85013002    0.81995994    0.04490000
opls_146-895    H    0.51668004    0.87425004    0.75689011    0.04420000
opls_146-896    H    0.46115004    0.83295005    0.88571000    0.04490000
opls_146-897    H    0.46568004    0.81141007    0.95292014    0.04490000
opls_146-898    H    0.53071000    0.83055999    0.96092006    0.04490000
opls_146-899    H    0.52633001    0.85228003    0.89410006    0.04490000
opls_146-900    H    0.50645996    0.71551996    0.07115012    0.04510000
opls_146-901    H    0.50496003    0.74471004    0.07056987    0.04500000
opls_146-902    H    0.50256998    0.78352994    0.07081007    0.04510000
opls_547-903    H    0.07714994    0.49830001    0.54715993    0.04420000
opls_547-904    H    0.49954006    0.97738998    0.33942988    0.04420000
opls_547-905    H    0.56872003    0.54167997    0.00000000    0.04490000
opls_547-906    H    0.53531004    0.57219998    0.00000000    0.04490000
opls_144-907    H    0.52636007    0.64450998    0.00000000    0.02500000
opls_146-908    H    0.57787999    0.50356006    0.92915994    0.04500000
opls_146-909    H    0.61702004    0.50526005    0.92924990    0.04510000
opls_146-910    H    0.67676996    0.49112007    0.07047002    0.04500000
opls_146-911    H    0.94199006    0.46766998    0.38815004    0.04490000
opls_146-912    H    0.91557002    0.46872995    0.32797006    0.04490000
opls_146-913    H    0.92119997    0.53641000    0.32245995    0.04490000
opls_146-914    H    0.94749000    0.53535002    0.38257007    0.04490000
opls_144-915    H    0.90794997    0.53227005    0.26210994    0.02500000
opls_146-916    H    0.89180007    0.54497007    0.19569986    0.04500000
opls_146-917    H    0.86772995    0.54054995    0.13232986    0.04420000
opls_146-918    H    0.85013002    0.47901001    0.18004006    0.04490000
opls_146-919    H    0.87425004    0.48331996    0.24310989    0.04420000
opls_146-920    H    0.83295005    0.53884996    0.11429000    0.04490000
opls_146-921    H    0.81141007    0.53431996    0.04707986    0.04490000
opls_146-922    H    0.83055999    0.46929000    0.03907994    0.04490000
opls_146-923    H    0.85228003    0.47366999    0.10589994    0.04490000
opls_146-924    H    0.71551996    0.49354004    0.92884988    0.04510000
opls_146-925    H    0.74471004    0.49503997    0.92943013    0.04500000
opls_146-926    H    0.78352994    0.49743002    0.92918993    0.04510000
opls_547-927    H    0.49830001    0.92285006    0.45284007    0.04420000
opls_547-928    H    0.97738998    0.50045994    0.66057012    0.04420000
opls_146-929    H    0.42212001    0.49643994    0.92915994    0.04500000
opls_146-930    H    0.38297996    0.49473995    0.92924990    0.04510000
opls_146-931    H    0.32323004    0.50887993    0.07047002    0.04500000
opls_146-932    H    0.05800994    0.53233002    0.38815004    0.04490000
opls_146-933    H    0.08442998    0.53127005    0.32797006    0.04490000
opls_146-934    H    0.07880003    0.46359000    0.32245995    0.04490000
opls_146-935    H    0.05251000    0.46464998    0.38257007    0.04490000
opls_144-936    H    0.09205003    0.46772995    0.26210994    0.02500000
opls_146-937    H    0.10819993    0.45502993    0.19569986    0.04490000
opls_146-938    H    0.13227005    0.45945005    0.13232986    0.04420000
opls_146-939    H    0.14986998    0.52098999    0.18004006    0.04490000
opls_146-940    H    0.12574996    0.51668004    0.24310989    0.04420000
opls_146-941    H    0.16704995    0.46115004    0.11429000    0.04490000
opls_146-942    H    0.18858993    0.46568004    0.04707986    0.04490000
opls_146-943    H    0.16944001    0.53071000    0.03907994    0.04500000
opls_146-944    H    0.14771997    0.52633001    0.10589994    0.04490000
opls_146-945    H    0.28448004    0.50645996    0.92884988    0.04510000
opls_146-946    H    0.25528996    0.50496003    0.92943013    0.04500000
opls_146-947    H    0.21647006    0.50256998    0.92918993    0.04520000
opls_547-948    H    0.50169999    0.07714994    0.45284007    0.04420000
opls_547-949    H    0.02261002    0.49954006    0.66057012    0.04420000
opls_146-950    H    0.49643994    0.57787999    0.92915994    0.04500000
opls_146-951    H    0.49473995    0.61702004    0.92924990    0.04510000
opls_146-952    H    0.50887993    0.67676996    0.07047002    0.04500000
opls_146-953    H    0.53233002    0.94199006    0.38815004    0.04490000
opls_146-954    H    0.53127005    0.91557002    0.32797006    0.04490000
opls_146-955    H    0.46359000    0.92119997    0.32245995    0.04490000
opls_146-956    H    0.46464998    0.94749000    0.38257007    0.04490000
opls_144-957    H    0.46772995    0.90794997    0.26210994    0.02500000
opls_146-958    H    0.45502993    0.89180007    0.19569986    0.04490000
opls_146-959    H    0.45945005    0.86772995    0.13232986    0.04420000
opls_146-960    H    0.52098999    0.85013002    0.18004006    0.04490000
opls_146-961    H    0.51668004    0.87425004    0.24310989    0.04420000
opls_146-962    H    0.46115004    0.83295005    0.11429000    0.04490000
opls_146-963    H    0.46568004    0.81141007    0.04707986    0.04490000
opls_146-964    H    0.53071000    0.83055999    0.03907994    0.04490000
opls_146-965    H    0.52633001    0.85228003    0.10589994    0.04490000
opls_146-966    H    0.50645996    0.71551996    0.92884988    0.04510000
opls_146-967    H    0.50496003    0.74471004    0.92943013    0.04510000
opls_146-968    H    0.50256998    0.78352994    0.92918993    0.04510000
opls_547-969    H    0.07714994    0.49830001    0.45284007    0.04420000
opls_547-970    H    0.49954006    0.97738998    0.66057012    0.04420000
opls_146-971    H    0.50356006    0.42212001    0.92915994    0.04500000
opls_146-972    H    0.50526005    0.38297996    0.92924990    0.04510000
opls_146-973    H    0.49112007    0.32323004    0.07047002    0.04500000
opls_146-974    H    0.46766998    0.05800994    0.38815004    0.04490000
opls_146-975    H    0.46872995    0.08442998    0.32797006    0.04490000
opls_146-976    H    0.53641000    0.07880003    0.32245995    0.04490000
opls_146-977    H    0.53535002    0.05251000    0.38257007    0.04490000
opls_144-978    H    0.53227005    0.09205003    0.26210994    0.02500000
opls_146-979    H    0.54497007    0.10819993    0.19569986    0.04490000
opls_146-980    H    0.54054995    0.13227005    0.13232986    0.04420000
opls_146-981    H    0.47901001    0.14986998    0.18004006    0.04490000
opls_146-982    H    0.48331996    0.12574996    0.24310989    0.04420000
opls_146-983    H    0.53884996    0.16704995    0.11429000    0.04490000
opls_146-984    H    0.53431996    0.18858993    0.04707986    0.04490000
opls_146-985    H    0.46929000    0.16944001    0.03907994    0.04490000
opls_146-986    H    0.47366999    0.14771997    0.10589994    0.04490000
opls_146-987    H    0.49354004    0.28448004    0.92884988    0.04510000
opls_146-988    H    0.49503997    0.25528996    0.92943013    0.04500000
opls_146-989    H    0.49743002    0.21647006    0.92918993    0.04510000
opls_547-990    H    0.92285006    0.50169999    0.45284007    0.04420000
opls_547-991    H    0.50045994    0.02261002    0.66057012    0.04420000
