#======================================================================
# Crystal Data Generated By AuToFF
#----------------------------------------------------------------------

data_AuToFF_phase_1

_cell_length_a                         39.1815
_cell_length_b                         38.3688
_cell_length_c                         27.0927
_cell_angle_alpha                      90.00
_cell_angle_beta                       90.00
_cell_angle_gamma                      90.00
_symmetry_space_group_name_H-M_alt     'P 1'
_symmetry_space_group_IT_number        1

loop_
_space_group_symop_operation_xyz
   'x, y, z'

loop_
   _atom_site_label
   _atom_site_type_symbol
   _atom_site_fract_x
   _atom_site_fract_y
   _atom_site_fract_z
   _atom_site_charge
opls_700-0    C    0.48205990    0.59579997    0.48690016    0.08640000
opls_145-1    C    0.46446997    0.56426993    0.49094996    -0.18020000
opls_700-2    C    0.48198997    0.53213992    0.49666995    0.01810000
opls_145-3    C    0.53571992    0.37256000    0.51775017    -0.13660000
opls_145-4    C    0.51781989    0.34121005    0.52219011    -0.09510000
opls_145-5    C    0.57351990    0.51428009    0.58838986    -0.13800000
opls_700-6    C    0.58890012    0.51402989    0.54117013    0.08560000
opls_145-7    C    0.62038998    0.46903005    0.46519985    -0.13210000
opls_145-8    C    0.63559996    0.45178009    0.42614985    -0.13920000
opls_700-9    C    0.61972002    0.45084991    0.37979013    0.06350000
opls_145-10    C    0.58912012    0.46865995    0.37221982    -0.13240000
opls_142-11    C    0.63454003    0.42960009    0.34074013    0.05860000
opls_700-12    C    0.66512997    0.23170988    0.18542006    0.08810000
opls_145-13    C    0.69261999    0.21385006    0.20623009    -0.18830000
opls_700-14    C    0.71959011    0.23164003    0.23053996    0.02920000
opls_145-15    C    0.86196011    0.28647000    0.33678998    -0.13700000
opls_145-16    C    0.88893993    0.26819994    0.35845006    -0.09510000
opls_145-17    C    0.70951010    0.37310002    0.25257985    -0.12690000
opls_700-18    C    0.72187997    0.34213997    0.27361983    0.06870000
opls_145-19    C    0.79179996    0.33007000    0.18173013    -0.11890000
opls_145-20    C    0.81626992    0.34962000    0.15720988    -0.19940000
opls_145-21    C    0.82758011    0.38110991    0.17711007    0.18430000
opls_145-22    C    0.81513010    0.39257000    0.22288993    -0.17090000
opls_700-23    C    0.98205990    0.09579997    0.98690016    0.08640000
opls_145-24    C    0.96446997    0.06426993    0.99094996    -0.18010000
opls_700-25    C    0.98198997    0.03213992    0.99666995    0.01810000
opls_145-26    C    0.03571992    0.87256000    0.01775017    -0.13660000
opls_145-27    C    0.01781989    0.84121005    0.02219011    -0.09510000
opls_145-28    C    0.07351990    0.01428009    0.08838986    -0.13800000
opls_700-29    C    0.08890012    0.01402989    0.04117013    0.08560000
opls_145-30    C    0.12038998    0.96903005    0.96519985    -0.13210000
opls_145-31    C    0.13559996    0.95178009    0.92614985    -0.13920000
opls_700-32    C    0.11972002    0.95084991    0.87979013    0.06350000
opls_145-33    C    0.08912012    0.96865995    0.87221982    -0.13240000
opls_142-34    C    0.13454003    0.92960009    0.84074013    0.05860000
opls_700-35    C    0.16512997    0.73170988    0.68542006    0.08810000
opls_145-36    C    0.19261999    0.71385006    0.70623009    -0.18850000
opls_700-37    C    0.21959011    0.73164003    0.73053996    0.02920000
opls_145-38    C    0.36196011    0.78647000    0.83678998    -0.13700000
opls_145-39    C    0.38893993    0.76819994    0.85845006    -0.09500000
opls_145-40    C    0.20951010    0.87310002    0.75257985    -0.12690000
opls_700-41    C    0.22187997    0.84213997    0.77361983    0.06870000
opls_145-42    C    0.29179996    0.83007000    0.68173013    -0.11890000
opls_145-43    C    0.31626992    0.84962000    0.65720988    -0.19940000
opls_145-44    C    0.32758011    0.88110991    0.67711007    0.18430000
opls_145-45    C    0.31513010    0.89257000    0.72288993    -0.17080000
opls_700-46    C    0.51794010    0.90420003    0.48690016    0.08640000
opls_145-47    C    0.53553003    0.93573007    0.49094996    -0.18020000
opls_700-48    C    0.51801003    0.96786008    0.49666995    0.01810000
opls_145-49    C    0.46428008    0.12744000    0.51775017    -0.13660000
opls_145-50    C    0.48218011    0.15878995    0.52219011    -0.09510000
opls_145-51    C    0.42648010    0.98571991    0.58838986    -0.13800000
opls_700-52    C    0.41109988    0.98597011    0.54117013    0.08560000
opls_145-53    C    0.37961002    0.03096995    0.46519985    -0.13210000
opls_145-54    C    0.36440004    0.04821991    0.42614985    -0.13920000
opls_700-55    C    0.38027998    0.04915009    0.37979013    0.06350000
opls_145-56    C    0.41087988    0.03134005    0.37221982    -0.13230000
opls_142-57    C    0.36545997    0.07039991    0.34074013    0.05860000
opls_700-58    C    0.33487003    0.26829012    0.18542006    0.08810000
opls_145-59    C    0.30738001    0.28614994    0.20623009    -0.18850000
opls_700-60    C    0.28040989    0.26835997    0.23053996    0.02920000
opls_145-61    C    0.13803989    0.21353000    0.33678998    -0.13700000
opls_145-62    C    0.11106007    0.23180006    0.35845006    -0.09500000
opls_145-63    C    0.29048990    0.12689998    0.25257985    -0.12680000
opls_700-64    C    0.27812003    0.15786003    0.27361983    0.06870000
opls_145-65    C    0.20820004    0.16993000    0.18173013    -0.11890000
opls_145-66    C    0.18373008    0.15038000    0.15720988    -0.19930000
opls_145-67    C    0.17241989    0.11889009    0.17711007    0.18430000
opls_145-68    C    0.18486990    0.10743000    0.22288993    -0.17090000
opls_700-69    C    0.01794010    0.40420003    0.98690016    0.08640000
opls_145-70    C    0.03553003    0.43573007    0.99094996    -0.18010000
opls_700-71    C    0.01801003    0.46786008    0.99666995    0.01810000
opls_145-72    C    0.96428008    0.62744000    0.01775017    -0.13660000
opls_145-73    C    0.98218011    0.65878995    0.02219011    -0.09510000
opls_145-74    C    0.92648010    0.48571991    0.08838986    -0.13800000
opls_700-75    C    0.91109988    0.48597011    0.04117013    0.08560000
opls_145-76    C    0.87961002    0.53096995    0.96519985    -0.13190000
opls_145-77    C    0.86440004    0.54821991    0.92614985    -0.13910000
opls_700-78    C    0.88027998    0.54915009    0.87979013    0.06350000
opls_145-79    C    0.91087988    0.53134005    0.87221982    -0.13240000
opls_142-80    C    0.86545997    0.57039991    0.84074013    0.05860000
opls_700-81    C    0.83487003    0.76829012    0.68542006    0.08810000
opls_145-82    C    0.80738001    0.78614994    0.70623009    -0.18850000
opls_700-83    C    0.78040989    0.76835997    0.73053996    0.02930000
opls_145-84    C    0.63803989    0.71353000    0.83678998    -0.13700000
opls_145-85    C    0.61106007    0.73180006    0.85845006    -0.09510000
opls_145-86    C    0.79048990    0.62689998    0.75257985    -0.12690000
opls_700-87    C    0.77812003    0.65786003    0.77361983    0.06870000
opls_145-88    C    0.70820004    0.66993000    0.68173013    -0.11890000
opls_145-89    C    0.68373008    0.65038000    0.65720988    -0.19930000
opls_145-90    C    0.67241989    0.61889009    0.67711007    0.18430000
opls_145-91    C    0.68486990    0.60743000    0.72288993    -0.17080000
opls_700-92    C    0.51794010    0.09579997    0.51309984    0.08640000
opls_145-93    C    0.53553003    0.06426993    0.50905004    -0.18020000
opls_700-94    C    0.51801003    0.03213992    0.50333005    0.01810000
opls_145-95    C    0.46428008    0.87256000    0.48224983    -0.13660000
opls_145-96    C    0.48218011    0.84121005    0.47780989    -0.09510000
opls_145-97    C    0.42648010    0.01428009    0.41161014    -0.13800000
opls_700-98    C    0.41109988    0.01402989    0.45882987    0.08560000
opls_145-99    C    0.37961002    0.96903005    0.53480015    -0.13210000
opls_145-100    C    0.36440004    0.95178009    0.57385015    -0.13920000
opls_700-101    C    0.38027998    0.95084991    0.62020987    0.06350000
opls_145-102    C    0.41087988    0.96865995    0.62778018    -0.13230000
opls_142-103    C    0.36545997    0.92960009    0.65925987    0.05860000
opls_700-104    C    0.33487003    0.73170988    0.81457994    0.08820000
opls_145-105    C    0.30738001    0.71385006    0.79376991    -0.18850000
opls_700-106    C    0.28040989    0.73164003    0.76946004    0.02920000
opls_145-107    C    0.13803989    0.78647000    0.66321002    -0.13700000
opls_145-108    C    0.11106007    0.76819994    0.64154994    -0.09510000
opls_145-109    C    0.29048990    0.87310002    0.74742015    -0.12690000
opls_700-110    C    0.27812003    0.84213997    0.72638017    0.06870000
opls_145-111    C    0.20820004    0.83007000    0.81826987    -0.11890000
opls_145-112    C    0.18373008    0.84962000    0.84279012    -0.19940000
opls_145-113    C    0.17241989    0.88110991    0.82288993    0.18430000
opls_145-114    C    0.18486990    0.89257000    0.77711007    -0.17090000
opls_700-115    C    0.01794010    0.59579997    0.01309984    0.08640000
opls_145-116    C    0.03553003    0.56426993    0.00905004    -0.18020000
opls_700-117    C    0.01801003    0.53213992    0.00333005    0.01810000
opls_145-118    C    0.96428008    0.37256000    0.98224983    -0.13660000
opls_145-119    C    0.98218011    0.34121005    0.97780989    -0.09510000
opls_145-120    C    0.92648010    0.51428009    0.91161014    -0.13800000
opls_700-121    C    0.91109988    0.51402989    0.95882987    0.08560000
opls_145-122    C    0.87961002    0.46903005    0.03480015    -0.13210000
opls_145-123    C    0.86440004    0.45178009    0.07385015    -0.13920000
opls_700-124    C    0.88027998    0.45084991    0.12020987    0.06350000
opls_145-125    C    0.91087988    0.46865995    0.12778018    -0.13240000
opls_142-126    C    0.86545997    0.42960009    0.15925987    0.05870000
opls_700-127    C    0.83487003    0.23170988    0.31457994    0.08810000
opls_145-128    C    0.80738001    0.21385006    0.29376991    -0.18850000
opls_700-129    C    0.78040989    0.23164003    0.26946004    0.02920000
opls_145-130    C    0.63803989    0.28647000    0.16321002    -0.13700000
opls_145-131    C    0.61106007    0.26819994    0.14154994    -0.09510000
opls_145-132    C    0.79048990    0.37310002    0.24742015    -0.12690000
opls_700-133    C    0.77812003    0.34213997    0.22638017    0.06870000
opls_145-134    C    0.70820004    0.33007000    0.31826987    -0.11890000
opls_145-135    C    0.68373008    0.34962000    0.34279012    -0.19920000
opls_145-136    C    0.67241989    0.38110991    0.32288993    0.18430000
opls_145-137    C    0.68486990    0.39257000    0.27711007    -0.17090000
opls_700-138    C    0.48205990    0.40420003    0.51309984    0.08640000
opls_145-139    C    0.46446997    0.43573007    0.50905004    -0.18020000
opls_700-140    C    0.48198997    0.46786008    0.50333005    0.01810000
opls_145-141    C    0.53571992    0.62744000    0.48224983    -0.13660000
opls_145-142    C    0.51781989    0.65878995    0.47780989    -0.09510000
opls_145-143    C    0.57351990    0.48571991    0.41161014    -0.13800000
opls_700-144    C    0.58890012    0.48597011    0.45882987    0.08560000
opls_145-145    C    0.62038998    0.53096995    0.53480015    -0.13210000
opls_145-146    C    0.63559996    0.54821991    0.57385015    -0.13920000
opls_700-147    C    0.61972002    0.54915009    0.62020987    0.06350000
opls_145-148    C    0.58912012    0.53134005    0.62778018    -0.13240000
opls_142-149    C    0.63454003    0.57039991    0.65925987    0.05860000
opls_700-150    C    0.66512997    0.76829012    0.81457994    0.08810000
opls_145-151    C    0.69261999    0.78614994    0.79376991    -0.18850000
opls_700-152    C    0.71959011    0.76835997    0.76946004    0.02920000
opls_145-153    C    0.86196011    0.71353000    0.66321002    -0.13700000
opls_145-154    C    0.88893993    0.73180006    0.64154994    -0.09510000
opls_145-155    C    0.70951010    0.62689998    0.74742015    -0.12690000
opls_700-156    C    0.72187997    0.65786003    0.72638017    0.06870000
opls_145-157    C    0.79179996    0.66993000    0.81826987    -0.11890000
opls_145-158    C    0.81626992    0.65038000    0.84279012    -0.19930000
opls_145-159    C    0.82758011    0.61889009    0.82288993    0.18430000
opls_145-160    C    0.81513010    0.60743000    0.77711007    -0.17090000
opls_700-161    C    0.98205990    0.90420003    0.01309984    0.08640000
opls_145-162    C    0.96446997    0.93573007    0.00905004    -0.18010000
opls_700-163    C    0.98198997    0.96786008    0.00333005    0.01810000
opls_145-164    C    0.03571992    0.12744000    0.98224983    -0.13660000
opls_145-165    C    0.01781989    0.15878995    0.97780989    -0.09510000
opls_145-166    C    0.07351990    0.98571991    0.91161014    -0.13800000
opls_700-167    C    0.08890012    0.98597011    0.95882987    0.08560000
opls_145-168    C    0.12038998    0.03096995    0.03480015    -0.13210000
opls_145-169    C    0.13559996    0.04821991    0.07385015    -0.13910000
opls_700-170    C    0.11972002    0.04915009    0.12020987    0.06350000
opls_145-171    C    0.08912012    0.03134005    0.12778018    -0.13240000
opls_142-172    C    0.13454003    0.07039991    0.15925987    0.05860000
opls_700-173    C    0.16512997    0.26829012    0.31457994    0.08810000
opls_145-174    C    0.19261999    0.28614994    0.29376991    -0.18850000
opls_700-175    C    0.21959011    0.26835997    0.26946004    0.02920000
opls_145-176    C    0.36196011    0.21353000    0.16321002    -0.13700000
opls_145-177    C    0.38893993    0.23180006    0.14154994    -0.09510000
opls_145-178    C    0.20951010    0.12689998    0.24742015    -0.12690000
opls_700-179    C    0.22187997    0.15786003    0.22638017    0.06870000
opls_145-180    C    0.29179996    0.16993000    0.31826987    -0.11890000
opls_145-181    C    0.31626992    0.15038000    0.34279012    -0.19930000
opls_145-182    C    0.32758011    0.11889009    0.32288993    0.18430000
opls_145-183    C    0.31513010    0.10743000    0.27711007    -0.17090000
opls_700-184    C    0.51794010    0.40420003    0.51309984    0.08640000
opls_145-185    C    0.53553003    0.43573007    0.50905004    -0.18020000
opls_700-186    C    0.51801003    0.46786008    0.50333005    0.01810000
opls_145-187    C    0.46428008    0.62744000    0.48224983    -0.13660000
opls_145-188    C    0.48218011    0.65878995    0.47780989    -0.09510000
opls_145-189    C    0.42648010    0.48571991    0.41161014    -0.13790000
opls_700-190    C    0.41109988    0.48597011    0.45882987    0.08560000
opls_145-191    C    0.37961002    0.53096995    0.53480015    -0.13210000
opls_145-192    C    0.36440004    0.54821991    0.57385015    -0.13920000
opls_700-193    C    0.38027998    0.54915009    0.62020987    0.06350000
opls_145-194    C    0.41087988    0.53134005    0.62778018    -0.13240000
opls_142-195    C    0.36545997    0.57039991    0.65925987    0.05860000
opls_700-196    C    0.33487003    0.76829012    0.81457994    0.08810000
opls_145-197    C    0.30738001    0.78614994    0.79376991    -0.18850000
opls_700-198    C    0.28040989    0.76835997    0.76946004    0.02920000
opls_145-199    C    0.13803989    0.71353000    0.66321002    -0.13700000
opls_145-200    C    0.11106007    0.73180006    0.64154994    -0.09510000
opls_145-201    C    0.29048990    0.62689998    0.74742015    -0.12690000
opls_700-202    C    0.27812003    0.65786003    0.72638017    0.06870000
opls_145-203    C    0.20820004    0.66993000    0.81826987    -0.11880000
opls_145-204    C    0.18373008    0.65038000    0.84279012    -0.19940000
opls_145-205    C    0.17241989    0.61889009    0.82288993    0.18430000
opls_145-206    C    0.18486990    0.60743000    0.77711007    -0.17090000
opls_700-207    C    0.01794010    0.90420003    0.01309984    0.08640000
opls_145-208    C    0.03553003    0.93573007    0.00905004    -0.18020000
opls_700-209    C    0.01801003    0.96786008    0.00333005    0.01810000
opls_145-210    C    0.96428008    0.12744000    0.98224983    -0.13660000
opls_145-211    C    0.98218011    0.15878995    0.97780989    -0.09510000
opls_145-212    C    0.92648010    0.98571991    0.91161014    -0.13800000
opls_700-213    C    0.91109988    0.98597011    0.95882987    0.08560000
opls_145-214    C    0.87961002    0.03096995    0.03480015    -0.13210000
opls_145-215    C    0.86440004    0.04821991    0.07385015    -0.13920000
opls_700-216    C    0.88027998    0.04915009    0.12020987    0.06350000
opls_145-217    C    0.91087988    0.03134005    0.12778018    -0.13240000
opls_142-218    C    0.86545997    0.07039991    0.15925987    0.05860000
opls_700-219    C    0.83487003    0.26829012    0.31457994    0.08810000
opls_145-220    C    0.80738001    0.28614994    0.29376991    -0.18850000
opls_700-221    C    0.78040989    0.26835997    0.26946004    0.02920000
opls_145-222    C    0.63803989    0.21353000    0.16321002    -0.13700000
opls_145-223    C    0.61106007    0.23180006    0.14154994    -0.09510000
opls_145-224    C    0.79048990    0.12689998    0.24742015    -0.12690000
opls_700-225    C    0.77812003    0.15786003    0.22638017    0.06870000
opls_145-226    C    0.70820004    0.16993000    0.31826987    -0.11890000
opls_145-227    C    0.68373008    0.15038000    0.34279012    -0.19940000
opls_145-228    C    0.67241989    0.11889009    0.32288993    0.18430000
opls_145-229    C    0.68486990    0.10743000    0.27711007    -0.17080000
opls_700-230    C    0.48205990    0.09579997    0.51309984    0.08640000
opls_145-231    C    0.46446997    0.06426993    0.50905004    -0.18020000
opls_700-232    C    0.48198997    0.03213992    0.50333005    0.01810000
opls_145-233    C    0.53571992    0.87256000    0.48224983    -0.13650000
opls_145-234    C    0.51781989    0.84121005    0.47780989    -0.09510000
opls_145-235    C    0.57351990    0.01428009    0.41161014    -0.13800000
opls_700-236    C    0.58890012    0.01402989    0.45882987    0.08570000
opls_145-237    C    0.62038998    0.96903005    0.53480015    -0.13210000
opls_145-238    C    0.63559996    0.95178009    0.57385015    -0.13920000
opls_700-239    C    0.61972002    0.95084991    0.62020987    0.06350000
opls_145-240    C    0.58912012    0.96865995    0.62778018    -0.13240000
opls_142-241    C    0.63454003    0.92960009    0.65925987    0.05860000
opls_700-242    C    0.66512997    0.73170988    0.81457994    0.08810000
opls_145-243    C    0.69261999    0.71385006    0.79376991    -0.18850000
opls_700-244    C    0.71959011    0.73164003    0.76946004    0.02920000
opls_145-245    C    0.86196011    0.78647000    0.66321002    -0.13700000
opls_145-246    C    0.88893993    0.76819994    0.64154994    -0.09500000
opls_145-247    C    0.70951010    0.87310002    0.74742015    -0.12690000
opls_700-248    C    0.72187997    0.84213997    0.72638017    0.06870000
opls_145-249    C    0.79179996    0.83007000    0.81826987    -0.11890000
opls_145-250    C    0.81626992    0.84962000    0.84279012    -0.19940000
opls_145-251    C    0.82758011    0.88110991    0.82288993    0.18430000
opls_145-252    C    0.81513010    0.89257000    0.77711007    -0.17090000
opls_700-253    C    0.98205990    0.59579997    0.01309984    0.08640000
opls_145-254    C    0.96446997    0.56426993    0.00905004    -0.18020000
opls_700-255    C    0.98198997    0.53213992    0.00333005    0.01810000
opls_145-256    C    0.03571992    0.37256000    0.98224983    -0.13660000
opls_145-257    C    0.01781989    0.34121005    0.97780989    -0.09510000
opls_145-258    C    0.07351990    0.51428009    0.91161014    -0.13800000
opls_700-259    C    0.08890012    0.51402989    0.95882987    0.08560000
opls_145-260    C    0.12038998    0.46903005    0.03480015    -0.13210000
opls_145-261    C    0.13559996    0.45178009    0.07385015    -0.13920000
opls_700-262    C    0.11972002    0.45084991    0.12020987    0.06350000
opls_145-263    C    0.08912012    0.46865995    0.12778018    -0.13240000
opls_142-264    C    0.13454003    0.42960009    0.15925987    0.05860000
opls_700-265    C    0.16512997    0.23170988    0.31457994    0.08810000
opls_145-266    C    0.19261999    0.21385006    0.29376991    -0.18840000
opls_700-267    C    0.21959011    0.23164003    0.26946004    0.02920000
opls_145-268    C    0.36196011    0.28647000    0.16321002    -0.13700000
opls_145-269    C    0.38893993    0.26819994    0.14154994    -0.09510000
opls_145-270    C    0.20951010    0.37310002    0.24742015    -0.12690000
opls_700-271    C    0.22187997    0.34213997    0.22638017    0.06870000
opls_145-272    C    0.29179996    0.33007000    0.31826987    -0.11880000
opls_145-273    C    0.31626992    0.34962000    0.34279012    -0.19940000
opls_145-274    C    0.32758011    0.38110991    0.32288993    0.18430000
opls_145-275    C    0.31513010    0.39257000    0.27711007    -0.17090000
opls_700-276    C    0.48205990    0.90420003    0.48690016    0.08640000
opls_145-277    C    0.46446997    0.93573007    0.49094996    -0.18020000
opls_700-278    C    0.48198997    0.96786008    0.49666995    0.01810000
opls_145-279    C    0.53571992    0.12744000    0.51775017    -0.13650000
opls_145-280    C    0.51781989    0.15878995    0.52219011    -0.09490000
opls_145-281    C    0.57351990    0.98571991    0.58838986    -0.13800000
opls_700-282    C    0.58890012    0.98597011    0.54117013    0.08560000
opls_145-283    C    0.62038998    0.03096995    0.46519985    -0.13210000
opls_145-284    C    0.63559996    0.04821991    0.42614985    -0.13920000
opls_700-285    C    0.61972002    0.04915009    0.37979013    0.06350000
opls_145-286    C    0.58912012    0.03134005    0.37221982    -0.13240000
opls_142-287    C    0.63454003    0.07039991    0.34074013    0.05860000
opls_700-288    C    0.66512997    0.26829012    0.18542006    0.08810000
opls_145-289    C    0.69261999    0.28614994    0.20623009    -0.18850000
opls_700-290    C    0.71959011    0.26835997    0.23053996    0.02920000
opls_145-291    C    0.86196011    0.21353000    0.33678998    -0.13700000
opls_145-292    C    0.88893993    0.23180006    0.35845006    -0.09510000
opls_145-293    C    0.70951010    0.12689998    0.25257985    -0.12680000
opls_700-294    C    0.72187997    0.15786003    0.27361983    0.06870000
opls_145-295    C    0.79179996    0.16993000    0.18173013    -0.11890000
opls_145-296    C    0.81626992    0.15038000    0.15720988    -0.19930000
opls_145-297    C    0.82758011    0.11889009    0.17711007    0.18430000
opls_145-298    C    0.81513010    0.10743000    0.22288993    -0.17080000
opls_700-299    C    0.98205990    0.40420003    0.98690016    0.08650000
opls_145-300    C    0.96446997    0.43573007    0.99094996    -0.18020000
opls_700-301    C    0.98198997    0.46786008    0.99666995    0.01810000
opls_145-302    C    0.03571992    0.62744000    0.01775017    -0.13660000
opls_145-303    C    0.01781989    0.65878995    0.02219011    -0.09510000
opls_145-304    C    0.07351990    0.48571991    0.08838986    -0.13800000
opls_700-305    C    0.08890012    0.48597011    0.04117013    0.08560000
opls_145-306    C    0.12038998    0.53096995    0.96519985    -0.13210000
opls_145-307    C    0.13559996    0.54821991    0.92614985    -0.13920000
opls_700-308    C    0.11972002    0.54915009    0.87979013    0.06350000
opls_145-309    C    0.08912012    0.53134005    0.87221982    -0.13240000
opls_142-310    C    0.13454003    0.57039991    0.84074013    0.05860000
opls_700-311    C    0.16512997    0.76829012    0.68542006    0.08810000
opls_145-312    C    0.19261999    0.78614994    0.70623009    -0.18850000
opls_700-313    C    0.21959011    0.76835997    0.73053996    0.02920000
opls_145-314    C    0.36196011    0.71353000    0.83678998    -0.13700000
opls_145-315    C    0.38893993    0.73180006    0.85845006    -0.09510000
opls_145-316    C    0.20951010    0.62689998    0.75257985    -0.12690000
opls_700-317    C    0.22187997    0.65786003    0.77361983    0.06870000
opls_145-318    C    0.29179996    0.66993000    0.68173013    -0.11890000
opls_145-319    C    0.31626992    0.65038000    0.65720988    -0.19940000
opls_145-320    C    0.32758011    0.61889009    0.67711007    0.18430000
opls_145-321    C    0.31513010    0.60743000    0.72288993    -0.17090000
opls_700-322    C    0.51794010    0.59579997    0.48690016    0.08640000
opls_145-323    C    0.53553003    0.56426993    0.49094996    -0.18020000
opls_700-324    C    0.51801003    0.53213992    0.49666995    0.01810000
opls_145-325    C    0.46428008    0.37256000    0.51775017    -0.13660000
opls_145-326    C    0.48218011    0.34121005    0.52219011    -0.09510000
opls_145-327    C    0.42648010    0.51428009    0.58838986    -0.13800000
opls_700-328    C    0.41109988    0.51402989    0.54117013    0.08560000
opls_145-329    C    0.37961002    0.46903005    0.46519985    -0.13210000
opls_145-330    C    0.36440004    0.45178009    0.42614985    -0.13920000
opls_700-331    C    0.38027998    0.45084991    0.37979013    0.06350000
opls_145-332    C    0.41087988    0.46865995    0.37221982    -0.13240000
opls_142-333    C    0.36545997    0.42960009    0.34074013    0.05860000
opls_700-334    C    0.33487003    0.23170988    0.18542006    0.08820000
opls_145-335    C    0.30738001    0.21385006    0.20623009    -0.18850000
opls_700-336    C    0.28040989    0.23164003    0.23053996    0.02920000
opls_145-337    C    0.13803989    0.28647000    0.33678998    -0.13700000
opls_145-338    C    0.11106007    0.26819994    0.35845006    -0.09510000
opls_145-339    C    0.29048990    0.37310002    0.25257985    -0.12680000
opls_700-340    C    0.27812003    0.34213997    0.27361983    0.06870000
opls_145-341    C    0.20820004    0.33007000    0.18173013    -0.11890000
opls_145-342    C    0.18373008    0.34962000    0.15720988    -0.19940000
opls_145-343    C    0.17241989    0.38110991    0.17711007    0.18430000
opls_145-344    C    0.18486990    0.39257000    0.22288993    -0.17090000
opls_700-345    C    0.01794010    0.09579997    0.98690016    0.08640000
opls_145-346    C    0.03553003    0.06426993    0.99094996    -0.18020000
opls_700-347    C    0.01801003    0.03213992    0.99666995    0.01810000
opls_145-348    C    0.96428008    0.87256000    0.01775017    -0.13650000
opls_145-349    C    0.98218011    0.84121005    0.02219011    -0.09510000
opls_145-350    C    0.92648010    0.01428009    0.08838986    -0.13800000
opls_700-351    C    0.91109988    0.01402989    0.04117013    0.08570000
opls_145-352    C    0.87961002    0.96903005    0.96519985    -0.13210000
opls_145-353    C    0.86440004    0.95178009    0.92614985    -0.13920000
opls_700-354    C    0.88027998    0.95084991    0.87979013    0.06350000
opls_145-355    C    0.91087988    0.96865995    0.87221982    -0.13240000
opls_142-356    C    0.86545997    0.92960009    0.84074013    0.05860000
opls_700-357    C    0.83487003    0.73170988    0.68542006    0.08810000
opls_145-358    C    0.80738001    0.71385006    0.70623009    -0.18850000
opls_700-359    C    0.78040989    0.73164003    0.73053996    0.02920000
opls_145-360    C    0.63803989    0.78647000    0.83678998    -0.13700000
opls_145-361    C    0.61106007    0.76819994    0.85845006    -0.09510000
opls_145-362    C    0.79048990    0.87310002    0.75257985    -0.12690000
opls_700-363    C    0.77812003    0.84213997    0.77361983    0.06870000
opls_145-364    C    0.70820004    0.83007000    0.68173013    -0.11880000
opls_145-365    C    0.68373008    0.84962000    0.65720988    -0.19920000
opls_145-366    C    0.67241989    0.88110991    0.67711007    0.18430000
opls_145-367    C    0.68486990    0.89257000    0.72288993    -0.17090000
opls_700-368    C    0.53586004    0.50000000    0.50000000    0.01200000
opls_700-369    C    0.57163993    0.50000000    0.50000000    0.01410000
opls_700-370    C    0.03586004    0.00000000    0.00000000    0.01200000
opls_700-371    C    0.07163993    0.00000000    0.00000000    0.01410000
opls_700-372    C    0.46413996    0.00000000    0.50000000    0.01200000
opls_700-373    C    0.42836007    0.00000000    0.50000000    0.01410000
opls_700-374    C    0.96413996    0.50000000    0.00000000    0.01200000
opls_700-375    C    0.92836007    0.50000000    0.00000000    0.01410000
opls_700-376    C    0.46413996    0.50000000    0.50000000    0.01200000
opls_700-377    C    0.42836007    0.50000000    0.50000000    0.01410000
opls_700-378    C    0.96413996    0.00000000    0.00000000    0.01200000
opls_700-379    C    0.92836007    0.00000000    0.00000000    0.01410000
opls_700-380    C    0.53586004    0.00000000    0.50000000    0.01200000
opls_700-381    C    0.57163993    0.00000000    0.50000000    0.01410000
opls_700-382    C    0.03586004    0.50000000    0.00000000    0.01200000
opls_700-383    C    0.07163993    0.50000000    0.00000000    0.01410000
opls_145-384    C    0.74999987    0.28771997    0.25000018    -0.03190000
opls_141-385    C    0.74999987    0.32280004    0.25000018    -0.00040000
opls_145-386    C    0.24999987    0.21228003    0.25000018    -0.03190000
opls_141-387    C    0.24999987    0.17719996    0.25000018    -0.00040000
opls_145-388    C    0.24999987    0.78771997    0.74999982    -0.03190000
opls_141-389    C    0.24999987    0.82280004    0.74999982    -0.00040000
opls_145-390    C    0.74999987    0.71228003    0.74999982    -0.03190000
opls_141-391    C    0.74999987    0.67719996    0.74999982    -0.00040000
opls_145-392    C    0.24999987    0.71228003    0.74999982    -0.03190000
opls_141-393    C    0.24999987    0.67719996    0.74999982    -0.00040000
opls_145-394    C    0.74999987    0.78771997    0.74999982    -0.03190000
opls_141-395    C    0.74999987    0.82280004    0.74999982    -0.00040000
opls_145-396    C    0.74999987    0.21228003    0.25000018    -0.03190000
opls_141-397    C    0.74999987    0.17719996    0.25000018    -0.00040000
opls_145-398    C    0.24999987    0.28771997    0.25000018    -0.03190000
opls_141-399    C    0.24999987    0.32280004    0.25000018    -0.00040000
opls_750-400    N    0.84737006    0.40301990    0.14612017    -0.31500000
opls_750-401    N    0.34737006    0.90301990    0.64612017    -0.31500000
opls_750-402    N    0.15262994    0.09698010    0.14612017    -0.31500000
opls_750-403    N    0.65262994    0.59698010    0.64612017    -0.31500000
opls_750-404    N    0.15262994    0.90301990    0.85387983    -0.31490000
opls_750-405    N    0.65262994    0.40301990    0.35387983    -0.31490000
opls_750-406    N    0.84737006    0.59698010    0.85387983    -0.31500000
opls_750-407    N    0.34737006    0.09698010    0.35387983    -0.31490000
opls_750-408    N    0.15262994    0.59698010    0.85387983    -0.31480000
opls_750-409    N    0.65262994    0.09698010    0.35387983    -0.31500000
opls_750-410    N    0.84737006    0.90301990    0.85387983    -0.31500000
opls_750-411    N    0.34737006    0.40301990    0.35387983    -0.31500000
opls_750-412    N    0.84737006    0.09698010    0.14612017    -0.31500000
opls_750-413    N    0.34737006    0.59698010    0.64612017    -0.31490000
opls_750-414    N    0.15262994    0.40301990    0.14612017    -0.31500000
opls_750-415    N    0.65262994    0.90301990    0.64612017    -0.31490000
opls_146-416    H    0.43692993    0.56521992    0.48878000    0.11280000
opls_146-417    H    0.56336996    0.37207992    0.51790999    0.10800000
opls_146-418    H    0.53161007    0.31689003    0.52568995    0.11060000
opls_146-419    H    0.54932991    0.50141000    0.59491007    0.10860000
opls_146-420    H    0.63240994    0.46714987    0.50108000    0.11100000
opls_146-421    H    0.65948011    0.43830013    0.43267006    0.11150000
opls_146-422    H    0.57669002    0.46819994    0.33649987    0.10800000
opls_144-423    H    0.63012008    0.43590991    0.30232018    0.10820000
opls_146-424    H    0.69312992    0.18598992    0.20135018    0.09580000
opls_146-425    H    0.86227990    0.31471013    0.33733995    0.10740000
opls_146-426    H    0.90980999    0.28227987    0.37539005    0.11300000
opls_146-427    H    0.82545997    0.34099998    0.12153015    0.10610000
opls_146-428    H    0.82288988    0.41727002    0.23850004    0.11120000
opls_146-429    H    0.71945000    0.38253008    0.21775017    0.10630000
opls_146-430    H    0.78253002    0.30628010    0.16486987    0.10730000
opls_146-431    H    0.93692993    0.06521992    0.98878000    0.11280000
opls_146-432    H    0.06336996    0.87207992    0.01790999    0.10800000
opls_146-433    H    0.03161007    0.81689003    0.02568995    0.11050000
opls_146-434    H    0.04932991    0.00141000    0.09491007    0.10860000
opls_146-435    H    0.13240994    0.96714987    0.00108000    0.11090000
opls_146-436    H    0.15948011    0.93830013    0.93267006    0.11150000
opls_146-437    H    0.07669002    0.96819994    0.83649987    0.10810000
opls_144-438    H    0.13012008    0.93590991    0.80232018    0.10820000
opls_146-439    H    0.19312992    0.68598992    0.70135018    0.09580000
opls_146-440    H    0.36227990    0.81471013    0.83733995    0.10740000
opls_146-441    H    0.40980999    0.78227987    0.87539005    0.11300000
opls_146-442    H    0.32545997    0.84099998    0.62153015    0.10600000
opls_146-443    H    0.32288988    0.91727002    0.73850004    0.11120000
opls_146-444    H    0.21945000    0.88253008    0.71775017    0.10630000
opls_146-445    H    0.28253002    0.80628010    0.66486987    0.10720000
opls_146-446    H    0.56307007    0.93478008    0.48878000    0.11280000
opls_146-447    H    0.43663004    0.12792008    0.51790999    0.10800000
opls_146-448    H    0.46838993    0.18310997    0.52568995    0.11060000
opls_146-449    H    0.45067009    0.99859000    0.59491007    0.10860000
opls_146-450    H    0.36759006    0.03285013    0.50108000    0.11090000
opls_146-451    H    0.34051989    0.06169987    0.43267006    0.11150000
opls_146-452    H    0.42330998    0.03180006    0.33649987    0.10800000
opls_144-453    H    0.36987992    0.06409009    0.30232018    0.10820000
opls_146-454    H    0.30687008    0.31401008    0.20135018    0.09580000
opls_146-455    H    0.13772010    0.18528987    0.33733995    0.10740000
opls_146-456    H    0.09019001    0.21772013    0.37539005    0.11300000
opls_146-457    H    0.17454003    0.15900002    0.12153015    0.10600000
opls_146-458    H    0.17711012    0.08272998    0.23850004    0.11120000
opls_146-459    H    0.28055000    0.11746992    0.21775017    0.10630000
opls_146-460    H    0.21746998    0.19371990    0.16486987    0.10730000
opls_146-461    H    0.06307007    0.43478008    0.98878000    0.11280000
opls_146-462    H    0.93663004    0.62792008    0.01790999    0.10800000
opls_146-463    H    0.96838993    0.68310997    0.02568995    0.11050000
opls_146-464    H    0.95067009    0.49859000    0.09491007    0.10860000
opls_146-465    H    0.86759006    0.53285013    0.00108000    0.11090000
opls_146-466    H    0.84051989    0.56169987    0.93267006    0.11150000
opls_146-467    H    0.92330998    0.53180006    0.83649987    0.10800000
opls_144-468    H    0.86987992    0.56409009    0.80232018    0.10820000
opls_146-469    H    0.80687008    0.81401008    0.70135018    0.09580000
opls_146-470    H    0.63772010    0.68528987    0.83733995    0.10740000
opls_146-471    H    0.59019001    0.71772013    0.87539005    0.11300000
opls_146-472    H    0.67454003    0.65900002    0.62153015    0.10600000
opls_146-473    H    0.67711012    0.58272998    0.73850004    0.11120000
opls_146-474    H    0.78055000    0.61746992    0.71775017    0.10630000
opls_146-475    H    0.71746998    0.69371990    0.66486987    0.10720000
opls_146-476    H    0.56307007    0.06521992    0.51122000    0.11280000
opls_146-477    H    0.43663004    0.87207992    0.48209001    0.10810000
opls_146-478    H    0.46838993    0.81689003    0.47431005    0.11050000
opls_146-479    H    0.45067009    0.00141000    0.40508993    0.10860000
opls_146-480    H    0.36759006    0.96714987    0.49892000    0.11090000
opls_146-481    H    0.34051989    0.93830013    0.56732994    0.11150000
opls_146-482    H    0.42330998    0.96819994    0.66350013    0.10800000
opls_144-483    H    0.36987992    0.93590991    0.69767982    0.10820000
opls_146-484    H    0.30687008    0.68598992    0.79864982    0.09580000
opls_146-485    H    0.13772010    0.81471013    0.66266005    0.10740000
opls_146-486    H    0.09019001    0.78227987    0.62460995    0.11300000
opls_146-487    H    0.17454003    0.84099998    0.87846985    0.10600000
opls_146-488    H    0.17711012    0.91727002    0.76149996    0.11120000
opls_146-489    H    0.28055000    0.88253008    0.78224983    0.10630000
opls_146-490    H    0.21746998    0.80628010    0.83513013    0.10720000
opls_146-491    H    0.06307007    0.56521992    0.01122000    0.11280000
opls_146-492    H    0.93663004    0.37207992    0.98209001    0.10800000
opls_146-493    H    0.96838993    0.31689003    0.97431005    0.11050000
opls_146-494    H    0.95067009    0.50141000    0.90508993    0.10860000
opls_146-495    H    0.86759006    0.46714987    0.99892000    0.11090000
opls_146-496    H    0.84051989    0.43830013    0.06732994    0.11150000
opls_146-497    H    0.92330998    0.46819994    0.16350013    0.10800000
opls_144-498    H    0.86987992    0.43590991    0.19767982    0.10820000
opls_146-499    H    0.80687008    0.18598992    0.29864982    0.09580000
opls_146-500    H    0.63772010    0.31471013    0.16266005    0.10740000
opls_146-501    H    0.59019001    0.28227987    0.12460995    0.11310000
opls_146-502    H    0.67454003    0.34099998    0.37846985    0.10600000
opls_146-503    H    0.67711012    0.41727002    0.26149996    0.11130000
opls_146-504    H    0.78055000    0.38253008    0.28224983    0.10630000
opls_146-505    H    0.71746998    0.30628010    0.33513013    0.10730000
opls_146-506    H    0.43692993    0.43478008    0.51122000    0.11280000
opls_146-507    H    0.56336996    0.62792008    0.48209001    0.10800000
opls_146-508    H    0.53161007    0.68310997    0.47431005    0.11050000
opls_146-509    H    0.54932991    0.49859000    0.40508993    0.10860000
opls_146-510    H    0.63240994    0.53285013    0.49892000    0.11090000
opls_146-511    H    0.65948011    0.56169987    0.56732994    0.11150000
opls_146-512    H    0.57669002    0.53180006    0.66350013    0.10800000
opls_144-513    H    0.63012008    0.56409009    0.69767982    0.10830000
opls_146-514    H    0.69312992    0.81401008    0.79864982    0.09580000
opls_146-515    H    0.86227990    0.68528987    0.66266005    0.10740000
opls_146-516    H    0.90980999    0.71772013    0.62460995    0.11300000
opls_146-517    H    0.82545997    0.65900002    0.87846985    0.10600000
opls_146-518    H    0.82288988    0.58272998    0.76149996    0.11130000
opls_146-519    H    0.71945000    0.61746992    0.78224983    0.10630000
opls_146-520    H    0.78253002    0.69371990    0.83513013    0.10720000
opls_146-521    H    0.93692993    0.93478008    0.01122000    0.11280000
opls_146-522    H    0.06336996    0.12792008    0.98209001    0.10800000
opls_146-523    H    0.03161007    0.18310997    0.97431005    0.11050000
opls_146-524    H    0.04932991    0.99859000    0.90508993    0.10860000
opls_146-525    H    0.13240994    0.03285013    0.99892000    0.11090000
opls_146-526    H    0.15948011    0.06169987    0.06732994    0.11150000
opls_146-527    H    0.07669002    0.03180006    0.16350013    0.10800000
opls_144-528    H    0.13012008    0.06409009    0.19767982    0.10820000
opls_146-529    H    0.19312992    0.31401008    0.29864982    0.09580000
opls_146-530    H    0.36227990    0.18528987    0.16266005    0.10740000
opls_146-531    H    0.40980999    0.21772013    0.12460995    0.11300000
opls_146-532    H    0.32545997    0.15900002    0.37846985    0.10600000
opls_146-533    H    0.32288988    0.08272998    0.26149996    0.11130000
opls_146-534    H    0.21945000    0.11746992    0.28224983    0.10630000
opls_146-535    H    0.28253002    0.19371990    0.33513013    0.10720000
opls_146-536    H    0.56307007    0.43478008    0.51122000    0.11280000
opls_146-537    H    0.43663004    0.62792008    0.48209001    0.10800000
opls_146-538    H    0.46838993    0.68310997    0.47431005    0.11050000
opls_146-539    H    0.45067009    0.49859000    0.40508993    0.10860000
opls_146-540    H    0.36759006    0.53285013    0.49892000    0.11090000
opls_146-541    H    0.34051989    0.56169987    0.56732994    0.11160000
opls_146-542    H    0.42330998    0.53180006    0.66350013    0.10800000
opls_144-543    H    0.36987992    0.56409009    0.69767982    0.10820000
opls_146-544    H    0.30687008    0.81401008    0.79864982    0.09590000
opls_146-545    H    0.13772010    0.68528987    0.66266005    0.10740000
opls_146-546    H    0.09019001    0.71772013    0.62460995    0.11300000
opls_146-547    H    0.17454003    0.65900002    0.87846985    0.10600000
opls_146-548    H    0.17711012    0.58272998    0.76149996    0.11120000
opls_146-549    H    0.28055000    0.61746992    0.78224983    0.10630000
opls_146-550    H    0.21746998    0.69371990    0.83513013    0.10720000
opls_146-551    H    0.06307007    0.93478008    0.01122000    0.11280000
opls_146-552    H    0.93663004    0.12792008    0.98209001    0.10800000
opls_146-553    H    0.96838993    0.18310997    0.97431005    0.11050000
opls_146-554    H    0.95067009    0.99859000    0.90508993    0.10860000
opls_146-555    H    0.86759006    0.03285013    0.99892000    0.11090000
opls_146-556    H    0.84051989    0.06169987    0.06732994    0.11150000
opls_146-557    H    0.92330998    0.03180006    0.16350013    0.10800000
opls_144-558    H    0.86987992    0.06409009    0.19767982    0.10820000
opls_146-559    H    0.80687008    0.31401008    0.29864982    0.09580000
opls_146-560    H    0.63772010    0.18528987    0.16266005    0.10740000
opls_146-561    H    0.59019001    0.21772013    0.12460995    0.11300000
opls_146-562    H    0.67454003    0.15900002    0.37846985    0.10600000
opls_146-563    H    0.67711012    0.08272998    0.26149996    0.11120000
opls_146-564    H    0.78055000    0.11746992    0.28224983    0.10630000
opls_146-565    H    0.71746998    0.19371990    0.33513013    0.10720000
opls_146-566    H    0.43692993    0.06521992    0.51122000    0.11290000
opls_146-567    H    0.56336996    0.87207992    0.48209001    0.10800000
opls_146-568    H    0.53161007    0.81689003    0.47431005    0.11050000
opls_146-569    H    0.54932991    0.00141000    0.40508993    0.10860000
opls_146-570    H    0.63240994    0.96714987    0.49892000    0.11090000
opls_146-571    H    0.65948011    0.93830013    0.56732994    0.11150000
opls_146-572    H    0.57669002    0.96819994    0.66350013    0.10800000
opls_144-573    H    0.63012008    0.93590991    0.69767982    0.10820000
opls_146-574    H    0.69312992    0.68598992    0.79864982    0.09580000
opls_146-575    H    0.86227990    0.81471013    0.66266005    0.10740000
opls_146-576    H    0.90980999    0.78227987    0.62460995    0.11300000
opls_146-577    H    0.82545997    0.84099998    0.87846985    0.10600000
opls_146-578    H    0.82288988    0.91727002    0.76149996    0.11120000
opls_146-579    H    0.71945000    0.88253008    0.78224983    0.10630000
opls_146-580    H    0.78253002    0.80628010    0.83513013    0.10720000
opls_146-581    H    0.93692993    0.56521992    0.01122000    0.11290000
opls_146-582    H    0.06336996    0.37207992    0.98209001    0.10800000
opls_146-583    H    0.03161007    0.31689003    0.97431005    0.11050000
opls_146-584    H    0.04932991    0.50141000    0.90508993    0.10860000
opls_146-585    H    0.13240994    0.46714987    0.99892000    0.11090000
opls_146-586    H    0.15948011    0.43830013    0.06732994    0.11150000
opls_146-587    H    0.07669002    0.46819994    0.16350013    0.10800000
opls_144-588    H    0.13012008    0.43590991    0.19767982    0.10820000
opls_146-589    H    0.19312992    0.18598992    0.29864982    0.09580000
opls_146-590    H    0.36227990    0.31471013    0.16266005    0.10740000
opls_146-591    H    0.40980999    0.28227987    0.12460995    0.11300000
opls_146-592    H    0.32545997    0.34099998    0.37846985    0.10600000
opls_146-593    H    0.32288988    0.41727002    0.26149996    0.11120000
opls_146-594    H    0.21945000    0.38253008    0.28224983    0.10630000
opls_146-595    H    0.28253002    0.30628010    0.33513013    0.10720000
opls_146-596    H    0.43692993    0.93478008    0.48878000    0.11280000
opls_146-597    H    0.56336996    0.12792008    0.51790999    0.10800000
opls_146-598    H    0.53161007    0.18310997    0.52568995    0.11050000
opls_146-599    H    0.54932991    0.99859000    0.59491007    0.10860000
opls_146-600    H    0.63240994    0.03285013    0.50108000    0.11090000
opls_146-601    H    0.65948011    0.06169987    0.43267006    0.11150000
opls_146-602    H    0.57669002    0.03180006    0.33649987    0.10800000
opls_144-603    H    0.63012008    0.06409009    0.30232018    0.10820000
opls_146-604    H    0.69312992    0.31401008    0.20135018    0.09580000
opls_146-605    H    0.86227990    0.18528987    0.33733995    0.10750000
opls_146-606    H    0.90980999    0.21772013    0.37539005    0.11300000
opls_146-607    H    0.82545997    0.15900002    0.12153015    0.10600000
opls_146-608    H    0.82288988    0.08272998    0.23850004    0.11120000
opls_146-609    H    0.71945000    0.11746992    0.21775017    0.10630000
opls_146-610    H    0.78253002    0.19371990    0.16486987    0.10720000
opls_146-611    H    0.93692993    0.43478008    0.98878000    0.11280000
opls_146-612    H    0.06336996    0.62792008    0.01790999    0.10800000
opls_146-613    H    0.03161007    0.68310997    0.02568995    0.11050000
opls_146-614    H    0.04932991    0.49859000    0.09491007    0.10860000
opls_146-615    H    0.13240994    0.53285013    0.00108000    0.11090000
opls_146-616    H    0.15948011    0.56169987    0.93267006    0.11150000
opls_146-617    H    0.07669002    0.53180006    0.83649987    0.10820000
opls_144-618    H    0.13012008    0.56409009    0.80232018    0.10820000
opls_146-619    H    0.19312992    0.81401008    0.70135018    0.09580000
opls_146-620    H    0.36227990    0.68528987    0.83733995    0.10740000
opls_146-621    H    0.40980999    0.71772013    0.87539005    0.11300000
opls_146-622    H    0.32545997    0.65900002    0.62153015    0.10600000
opls_146-623    H    0.32288988    0.58272998    0.73850004    0.11120000
opls_146-624    H    0.21945000    0.61746992    0.71775017    0.10630000
opls_146-625    H    0.28253002    0.69371990    0.66486987    0.10720000
opls_146-626    H    0.56307007    0.56521992    0.48878000    0.11280000
opls_146-627    H    0.43663004    0.37207992    0.51790999    0.10800000
opls_146-628    H    0.46838993    0.31689003    0.52568995    0.11050000
opls_146-629    H    0.45067009    0.50141000    0.59491007    0.10860000
opls_146-630    H    0.36759006    0.46714987    0.50108000    0.11090000
opls_146-631    H    0.34051989    0.43830013    0.43267006    0.11160000
opls_146-632    H    0.42330998    0.46819994    0.33649987    0.10800000
opls_144-633    H    0.36987992    0.43590991    0.30232018    0.10820000
opls_146-634    H    0.30687008    0.18598992    0.20135018    0.09580000
opls_146-635    H    0.13772010    0.31471013    0.33733995    0.10740000
opls_146-636    H    0.09019001    0.28227987    0.37539005    0.11300000
opls_146-637    H    0.17454003    0.34099998    0.12153015    0.10600000
opls_146-638    H    0.17711012    0.41727002    0.23850004    0.11120000
opls_146-639    H    0.28055000    0.38253008    0.21775017    0.10640000
opls_146-640    H    0.21746998    0.30628010    0.16486987    0.10730000
opls_146-641    H    0.06307007    0.06521992    0.98878000    0.11290000
opls_146-642    H    0.93663004    0.87207992    0.01790999    0.10800000
opls_146-643    H    0.96838993    0.81689003    0.02568995    0.11050000
opls_146-644    H    0.95067009    0.00141000    0.09491007    0.10860000
opls_146-645    H    0.86759006    0.96714987    0.00108000    0.11090000
opls_146-646    H    0.84051989    0.93830013    0.93267006    0.11150000
opls_146-647    H    0.92330998    0.96819994    0.83649987    0.10810000
opls_144-648    H    0.86987992    0.93590991    0.80232018    0.10820000
opls_146-649    H    0.80687008    0.68598992    0.70135018    0.09580000
opls_146-650    H    0.63772010    0.81471013    0.83733995    0.10740000
opls_146-651    H    0.59019001    0.78227987    0.87539005    0.11300000
opls_146-652    H    0.67454003    0.84099998    0.62153015    0.10600000
opls_146-653    H    0.67711012    0.91727002    0.73850004    0.11120000
opls_146-654    H    0.78055000    0.88253008    0.71775017    0.10630000
opls_146-655    H    0.71746998    0.80628010    0.66486987    0.10720000
