#======================================================================
# Crystal Data Generated By AuToFF
#----------------------------------------------------------------------

data_AuToFF_phase_1

_cell_length_a                         29.2140
_cell_length_b                         29.2140
_cell_length_c                         3.6000
_cell_angle_alpha                      90.00
_cell_angle_beta                       90.00
_cell_angle_gamma                      120.00
_symmetry_space_group_name_H-M_alt     'P 1'
_symmetry_space_group_IT_number        1

loop_
_space_group_symop_operation_xyz
   'x, y, z'

loop_
   _atom_site_label
   _atom_site_type_symbol
   _atom_site_fract_x
   _atom_site_fract_y
   _atom_site_fract_z
   _atom_site_charge
opls_238-0    N    0.57647988    0.19115995    0.61111111    -0.20700000
opls_767-1    N    0.64436012    0.14543003    0.61250000    0.33460000
opls_238-2    N    0.80883985    0.38531988    0.61111111    -0.20700000
opls_767-3    N    0.85457001    0.49892984    0.61250000    0.33460000
opls_238-4    N    0.61467972    0.42351978    0.61111111    -0.20700000
opls_767-5    N    0.50107022    0.35564012    0.61250000    0.33460000
opls_238-6    N    0.42352012    0.80884005    0.61111111    -0.20700000
opls_767-7    N    0.35563988    0.85456997    0.61250000    0.33460000
opls_238-8    N    0.19115995    0.61467972    0.61111111    -0.20730000
opls_767-9    N    0.14542979    0.50106976    0.61250000    0.33460000
opls_238-10    N    0.38532008    0.57647983    0.61111111    -0.20700000
opls_767-11    N    0.49892978    0.64435988    0.61250000    0.33460000
opls_142-12    C    0.62820004    0.22664997    0.61111111    0.13040000
opls_916-13    C    0.55574017    0.13760001    0.61111111    0.16150000
opls_768-14    C    0.58768000    0.11504988    0.61111111    -0.02830000
opls_145-15    C    0.56542020    0.06157019    0.61111111    -0.17720000
opls_700-16    C    0.51096001    0.02832996    0.61111111    0.10270000
opls_145-17    C    0.47950989    0.05178009    0.61111111    -0.11490000
opls_145-18    C    0.50145998    0.10555979    0.61111111    -0.14360000
opls_280-19    C    0.38822001    0.70024984    0.61111111    0.30810000
opls_145-20    C    0.35510996    0.72283990    0.61111111    -0.08750000
opls_142-21    C    0.77335007    0.40154988    0.61111111    0.13040000
opls_916-22    C    0.86239989    0.41813995    0.61111111    0.16150000
opls_768-23    C    0.88494986    0.47262992    0.61111111    -0.02830000
opls_145-24    C    0.93843009    0.50384999    0.61111111    -0.17720000
opls_700-25    C    0.97166991    0.48262989    0.61111111    0.10270000
opls_145-26    C    0.94822012    0.42773004    0.61111111    -0.11490000
opls_145-27    C    0.89444008    0.39590009    0.61111111    -0.14360000
opls_280-28    C    0.29975006    0.68797003    0.61111111    0.30810000
opls_145-29    C    0.27715975    0.63226979    0.61111111    -0.08750000
opls_142-30    C    0.59845003    0.37179976    0.61111111    0.13040000
opls_916-31    C    0.58185994    0.44426004    0.61111111    0.16150000
opls_768-32    C    0.52736994    0.41231981    0.61111111    -0.02830000
opls_145-33    C    0.49615005    0.43457983    0.61111111    -0.17720000
opls_700-34    C    0.51736988    0.48903975    0.61111111    0.10270000
opls_145-35    C    0.57226999    0.52048986    0.61111111    -0.11490000
opls_145-36    C    0.60409974    0.49853973    0.61111111    -0.14360000
opls_280-37    C    0.31202973    0.61177973    0.61111111    0.30810000
opls_145-38    C    0.36773009    0.64488992    0.61111111    -0.08750000
opls_142-39    C    0.37179996    0.77335003    0.61111111    0.13040000
opls_916-40    C    0.44425983    0.86239999    0.61111111    0.16150000
opls_768-41    C    0.41231980    0.88494973    0.61111111    -0.02830000
opls_145-42    C    0.43457980    0.93842981    0.61111111    -0.17720000
opls_700-43    C    0.48903999    0.97167004    0.61111111    0.10270000
opls_145-44    C    0.52049011    0.94821991    0.61111111    -0.11490000
opls_145-45    C    0.49853982    0.89443982    0.61111111    -0.14360000
opls_280-46    C    0.61177979    0.29974976    0.61111111    0.30810000
opls_145-47    C    0.64489004    0.27716010    0.61111111    -0.08750000
opls_142-48    C    0.22664973    0.59844973    0.61111111    0.13040000
opls_916-49    C    0.13760011    0.58186005    0.61111111    0.16160000
opls_768-50    C    0.11505014    0.52737008    0.61111111    -0.02830000
opls_145-51    C    0.06156991    0.49615001    0.61111111    -0.17720000
opls_700-52    C    0.02833009    0.51737011    0.61111111    0.10280000
opls_145-53    C    0.05177988    0.57226996    0.61111111    -0.11490000
opls_145-54    C    0.10555992    0.60409991    0.61111111    -0.14360000
opls_280-55    C    0.70024994    0.31202997    0.61111111    0.30810000
opls_145-56    C    0.72284006    0.36772981    0.61111111    -0.08750000
opls_142-57    C    0.40154977    0.62819984    0.61111111    0.13040000
opls_916-58    C    0.41814006    0.55573996    0.61111111    0.16150000
opls_768-59    C    0.47262986    0.58767980    0.61111111    -0.02830000
opls_145-60    C    0.50384975    0.56541978    0.61111111    -0.17720000
opls_700-61    C    0.48262992    0.51095985    0.61111111    0.10270000
opls_145-62    C    0.42772981    0.47950974    0.61111111    -0.11490000
opls_145-63    C    0.39590006    0.50145988    0.61111111    -0.14360000
opls_280-64    C    0.68797007    0.38821987    0.61111111    0.30810000
opls_145-65    C    0.63226991    0.35511008    0.61111111    -0.08750000
opls_144-66    H    0.65799999    0.21455000    0.61111111    0.11270000
opls_910-67    H    0.55365001    0.21141997    0.61111111    0.28140000
opls_146-68    H    0.47663005    0.12420005    0.61111111    0.11000000
opls_146-69    H    0.59184999    0.04493980    0.61111111    0.07230000
opls_146-70    H    0.43634020    0.02725012    0.61111111    0.06590000
opls_144-71    H    0.78544981    0.44344976    0.61111111    0.11270000
opls_910-72    H    0.78857986    0.34222988    0.61111111    0.28120000
opls_146-73    H    0.87580006    0.35242985    0.61111111    0.11000000
opls_146-74    H    0.95506003    0.54690995    0.61111111    0.07230000
opls_146-75    H    0.97274986    0.40908978    0.61111111    0.06590000
opls_144-76    H    0.55655000    0.34199984    0.61111111    0.11280000
opls_910-77    H    0.65776993    0.44634975    0.61111111    0.28120000
opls_146-78    H    0.64756990    0.52337009    0.61111111    0.11000000
opls_146-79    H    0.45308979    0.40814986    0.61111111    0.07230000
opls_146-80    H    0.59090994    0.56366010    0.61111111    0.06590000
opls_144-81    H    0.34200001    0.78545000    0.61111111    0.11270000
opls_910-82    H    0.44634999    0.78858003    0.61111111    0.28130000
opls_146-83    H    0.52336995    0.87579995    0.61111111    0.11000000
opls_146-84    H    0.40814981    0.95505981    0.61111111    0.07230000
opls_146-85    H    0.56365980    0.97274988    0.61111111    0.06590000
opls_144-86    H    0.21455000    0.55654984    0.61111111    0.11270000
opls_910-87    H    0.21141995    0.65776972    0.61111111    0.28120000
opls_146-88    H    0.12419974    0.64756975    0.61111111    0.11000000
opls_146-89    H    0.04493997    0.45309005    0.61111111    0.07230000
opls_146-90    H    0.02724994    0.59090983    0.61111111    0.06590000
opls_144-91    H    0.44344980    0.65799976    0.61111111    0.11270000
opls_910-92    H    0.34222987    0.55364985    0.61111111    0.28120000
opls_146-93    H    0.35243010    0.47662991    0.61111111    0.11010000
opls_146-94    H    0.54691002    0.59184975    0.61111111    0.07230000
opls_146-95    H    0.40909006    0.43633990    0.61111111    0.06590000
opls_761-96    O    0.66564999    0.18312993    0.40666111    -0.29910000
opls_761-97    O    0.67071010    0.13513006    0.81831944    -0.29120000
opls_281-98    O    0.43358982    0.72723989    0.61111111    -0.33070000
opls_761-99    O    0.81686999    0.48252001    0.40666111    -0.29910000
opls_761-100    O    0.86487014    0.53557994    0.81831944    -0.29120000
opls_281-101    O    0.27276004    0.70634982    0.61111111    -0.33070000
opls_761-102    O    0.51748002    0.33435006    0.40666111    -0.29910000
opls_761-103    O    0.46442011    0.32929000    0.81831944    -0.29120000
opls_281-104    O    0.29364994    0.56640990    0.61111111    -0.33070000
opls_761-105    O    0.33435001    0.81687007    0.40666111    -0.29910000
opls_761-106    O    0.32928990    0.86486994    0.81831944    -0.29110000
opls_281-107    O    0.56641018    0.27276011    0.61111111    -0.33070000
opls_761-108    O    0.18313001    0.51747999    0.40666111    -0.29910000
opls_761-109    O    0.13512986    0.46442006    0.81831944    -0.29120000
opls_281-110    O    0.72723976    0.29364978    0.61111111    -0.33070000
opls_761-111    O    0.48251998    0.66564994    0.40666111    -0.29900000
opls_761-112    O    0.53557989    0.67071000    0.81831944    -0.29120000
opls_281-113    O    0.70635006    0.43359010    0.61111111    -0.33070000
