#======================================================================
# Crystal Data Generated By AuToFF
#----------------------------------------------------------------------

data_AuToFF_phase_1

_cell_length_a                         16.0000
_cell_length_b                         16.0000
_cell_length_c                         6.9000
_cell_angle_alpha                      40.00
_cell_angle_beta                       140.00
_cell_angle_gamma                      120.00
_symmetry_space_group_name_H-M_alt     'P 1'
_symmetry_space_group_IT_number        1

loop_
_space_group_symop_operation_xyz
   'x, y, z'

loop_
   _atom_site_label
   _atom_site_type_symbol
   _atom_site_fract_x
   _atom_site_fract_y
   _atom_site_fract_z
   _atom_site_charge
opls_521-0    C    0.25520004    0.66050009    0.00000000    0.11630000
opls_521-1    C    0.25519976    0.57749951    0.00000000    0.10770000
opls_521-2    C    0.33779991    0.57759983    0.00000000    0.10900000
opls_521-3    C    0.42109989    0.66039977    0.00000000    0.10900000
opls_521-4    C    0.42109997    0.74349994    0.00000000    0.11680000
opls_521-5    C    0.33779992    0.74369985    0.00000000    0.10900000
opls_521-6    C    0.50369976    0.90899952    0.00000000    0.00450000
opls_521-7    C    0.42109982    0.90949965    0.00000000    0.00730000
opls_521-8    C    0.08939991    0.57759983    0.00000000    0.00730000
opls_521-9    C    0.08939999    0.49459997    0.00000000    0.00450000
opls_521-10    C    0.42109989    0.49499979    0.00000000    -0.00490000
opls_521-11    C    0.50369976    0.57749951    0.00000000    0.00330000
opls_280-12    C    0.00609987    0.57779973    0.00000000    0.24520000
opls_280-13    C    0.00609986    0.41169971    0.00000000    0.24830000
opls_280-14    C    0.58689975    0.99249950    0.00000000    0.25320000
opls_280-15    C    0.42109991    0.99259981    0.00000000    0.24290000
opls_521-16    C    0.58689991    0.24999982    0.00000000    0.09480000
opls_521-17    C    0.66950007    0.25010013    0.00000000    0.10890000
opls_521-18    C    0.75279984    0.33299967    0.00000000    0.10900000
opls_521-19    C    0.75280012    0.41600025    0.00000000    0.10890000
opls_521-20    C    0.66949986    0.41559971    0.00000000    0.10890000
opls_521-21    C    0.58689999    0.33309999    0.00000000    0.09550000
opls_521-22    C    0.58689985    0.49909969    0.00000000    -0.00490000
opls_521-23    C    0.50440012    0.41600025    0.00000000    0.00680000
opls_521-24    C    0.50440012    0.08450024    0.00000000    -0.00680000
opls_521-25    C    0.58689992    0.08459984    0.00000000    -0.00830000
opls_521-26    C    0.91869997    0.41589993    0.00000000    -0.00900000
opls_521-27    C    0.91869989    0.49889979    0.00000000    0.00730000
opls_280-28    C    0.42110008    0.41620016    0.00000000    0.21540000
opls_280-29    C    0.58690002    0.57790005    0.00000000    0.20840000
opls_520-30    N    0.50370005    0.82660011    0.00000000    -0.12600000
opls_520-31    N    0.33779999    0.82609998    0.00000000    -0.13630000
opls_520-32    N    0.17200000    0.66069999    0.00000000    -0.13600000
opls_520-33    N    0.17199978    0.49469957    0.00000000    -0.13710000
opls_520-34    N    0.33779999    0.49459997    0.00000000    -0.13640000
opls_520-35    N    0.50370004    0.66050009    0.00000000    -0.13710000
opls_520-36    N    0.66949978    0.49859957    0.00000000    -0.13780000
opls_520-37    N    0.50439984    0.33299967    0.00000000    -0.12780000
opls_520-38    N    0.50440005    0.16750010    0.00000000    -0.12600000
opls_520-39    N    0.66950014    0.16710028    0.00000000    -0.13710000
opls_520-40    N    0.83539984    0.33299967    0.00000000    -0.13620000
opls_520-41    N    0.83539999    0.49849997    0.00000000    -0.13720000
opls_272-42    O    0.33709987    0.99119974    0.00000000    -0.17660000
opls_272-43    O    0.66949989    0.99189978    0.00000000    -0.17790000
opls_272-44    O    0.33780009    0.33270017    0.00000000    -0.17680000
opls_272-45    O    0.66949989    0.66039977    0.00000000    -0.19710000
opls_272-46    O    0.00609993    0.66019986    0.00000000    -0.19710000
opls_272-47    O    0.00609993    0.32869986    0.00000000    -0.17780000
