#======================================================================
# Crystal Data Generated By AuToFF
#----------------------------------------------------------------------

data_AuToFF_phase_1

_cell_length_a                         24.8910
_cell_length_b                         27.1822
_cell_length_c                         32.5284
_cell_angle_alpha                      90.00
_cell_angle_beta                       90.00
_cell_angle_gamma                      90.00
_symmetry_space_group_name_H-M_alt     'P 1'
_symmetry_space_group_IT_number        1

loop_
_space_group_symop_operation_xyz
   'x, y, z'

loop_
   _atom_site_label
   _atom_site_type_symbol
   _atom_site_fract_x
   _atom_site_fract_y
   _atom_site_fract_z
   _atom_site_charge
opls_146-0    H    0.50000000    0.77030998    0.59142011    0.10330000
opls_146-1    H    0.50000000    0.59814989    0.63423993    0.22070000
opls_146-2    H    0.50000000    0.65840992    0.68366996    0.10320000
opls_144-3    H    0.50000000    0.75047016    0.70592006    0.08520000
opls_146-4    H    0.50000000    0.88563987    0.62172993    0.10350000
opls_146-5    H    0.50000000    0.96505986    0.64676990    0.22070000
opls_146-6    H    0.50000000    0.91049989    0.77193990    0.10150000
opls_146-7    H    0.50000000    0.17348007    0.74345987    0.10490000
opls_146-8    H    0.50000000    0.71503999    0.54087013    0.09870000
opls_146-9    H    0.50000000    0.46059995    0.60325008    0.22090000
opls_146-10    H    0.00000000    0.27030998    0.59142011    0.10330000
opls_146-11    H    0.00000000    0.09814989    0.63423993    0.22070000
opls_146-12    H    0.00000000    0.15840992    0.68366996    0.10320000
opls_144-13    H    0.00000000    0.25047016    0.70592006    0.08520000
opls_146-14    H    0.00000000    0.38563987    0.62172993    0.10350000
opls_146-15    H    0.00000000    0.46505986    0.64676990    0.22070000
opls_146-16    H    0.00000000    0.41049989    0.77193990    0.10150000
opls_146-17    H    0.00000000    0.67348007    0.74345987    0.10490000
opls_146-18    H    0.00000000    0.21503999    0.54087013    0.09870000
opls_146-19    H    0.00000000    0.96059995    0.60325008    0.22070000
opls_146-20    H    0.50000000    0.22969002    0.59142011    0.10330000
opls_146-21    H    0.50000000    0.40185011    0.63423993    0.22070000
opls_146-22    H    0.50000000    0.34159008    0.68366996    0.10320000
opls_144-23    H    0.50000000    0.24952984    0.70592006    0.08520000
opls_146-24    H    0.50000000    0.11436013    0.62172993    0.10350000
opls_146-25    H    0.50000000    0.03494014    0.64676990    0.22070000
opls_146-26    H    0.50000000    0.08950011    0.77193990    0.10150000
opls_146-27    H    0.50000000    0.82651993    0.74345987    0.10490000
opls_146-28    H    0.50000000    0.28496001    0.54087013    0.09870000
opls_146-29    H    0.50000000    0.53940005    0.60325008    0.22070000
opls_146-30    H    0.00000000    0.72969002    0.59142011    0.10330000
opls_146-31    H    0.00000000    0.90185011    0.63423993    0.22080000
opls_146-32    H    0.00000000    0.84159008    0.68366996    0.10320000
opls_144-33    H    0.00000000    0.74952984    0.70592006    0.08520000
opls_146-34    H    0.00000000    0.61436013    0.62172993    0.10350000
opls_146-35    H    0.00000000    0.53494014    0.64676990    0.22070000
opls_146-36    H    0.00000000    0.58950011    0.77193990    0.10150000
opls_146-37    H    0.00000000    0.32651993    0.74345987    0.10490000
opls_146-38    H    0.00000000    0.78496001    0.54087013    0.09870000
opls_146-39    H    0.00000000    0.03940005    0.60325008    0.22080000
opls_146-40    H    0.50000000    0.77030998    0.40857989    0.10330000
opls_146-41    H    0.50000000    0.59814989    0.36576007    0.22070000
opls_146-42    H    0.50000000    0.65840992    0.31633004    0.10320000
opls_144-43    H    0.50000000    0.75047016    0.29407994    0.08520000
opls_146-44    H    0.50000000    0.88563987    0.37827007    0.10350000
opls_146-45    H    0.50000000    0.96505986    0.35323010    0.22070000
opls_146-46    H    0.50000000    0.91049989    0.22806010    0.10150000
opls_146-47    H    0.50000000    0.17348007    0.25654013    0.10490000
opls_146-48    H    0.50000000    0.71503999    0.45912987    0.09870000
opls_146-49    H    0.50000000    0.46059995    0.39674992    0.22070000
opls_146-50    H    0.00000000    0.27030998    0.40857989    0.10330000
opls_146-51    H    0.00000000    0.09814989    0.36576007    0.22070000
opls_146-52    H    0.00000000    0.15840992    0.31633004    0.10320000
opls_144-53    H    0.00000000    0.25047016    0.29407994    0.08530000
opls_146-54    H    0.00000000    0.38563987    0.37827007    0.10350000
opls_146-55    H    0.00000000    0.46505986    0.35323010    0.22070000
opls_146-56    H    0.00000000    0.41049989    0.22806010    0.10150000
opls_146-57    H    0.00000000    0.67348007    0.25654013    0.10490000
opls_146-58    H    0.00000000    0.21503999    0.45912987    0.09870000
opls_146-59    H    0.00000000    0.96059995    0.39674992    0.22070000
opls_146-60    H    0.50000000    0.22969002    0.40857989    0.10330000
opls_146-61    H    0.50000000    0.40185011    0.36576007    0.22070000
opls_146-62    H    0.50000000    0.34159008    0.31633004    0.10320000
opls_144-63    H    0.50000000    0.24952984    0.29407994    0.08520000
opls_146-64    H    0.50000000    0.11436013    0.37827007    0.10350000
opls_146-65    H    0.50000000    0.03494014    0.35323010    0.22080000
opls_146-66    H    0.50000000    0.08950011    0.22806010    0.10150000
opls_146-67    H    0.50000000    0.82651993    0.25654013    0.10490000
opls_146-68    H    0.50000000    0.28496001    0.45912987    0.09870000
opls_146-69    H    0.50000000    0.53940005    0.39674992    0.22070000
opls_146-70    H    0.00000000    0.72969002    0.40857989    0.10330000
opls_146-71    H    0.00000000    0.90185011    0.36576007    0.22070000
opls_146-72    H    0.00000000    0.84159008    0.31633004    0.10320000
opls_144-73    H    0.00000000    0.74952984    0.29407994    0.08520000
opls_146-74    H    0.00000000    0.61436013    0.37827007    0.10350000
opls_146-75    H    0.00000000    0.53494014    0.35323010    0.22070000
opls_146-76    H    0.00000000    0.58950011    0.22806010    0.10150000
opls_146-77    H    0.00000000    0.32651993    0.25654013    0.10490000
opls_146-78    H    0.00000000    0.78496001    0.45912987    0.09870000
opls_146-79    H    0.00000000    0.03940005    0.39674992    0.22070000
opls_146-80    H    0.24007995    0.00000000    0.12539012    0.10420000
opls_146-81    H    0.05707003    0.00000000    0.18073007    0.08060000
opls_146-82    H    0.12937005    0.00000000    0.22560009    0.10380000
opls_144-83    H    0.23034993    0.00000000    0.24082002    0.08520000
opls_146-84    H    0.37392993    0.00000000    0.15257006    0.10150000
opls_146-85    H    0.46161986    0.00000000    0.17713998    0.22080000
opls_146-86    H    0.40314009    0.00000000    0.30259004    0.10130000
opls_146-87    H    0.68848982    0.00000000    0.27509991    0.10500000
opls_146-88    H    0.13387007    0.00000000    0.96794002    0.22070000
opls_146-89    H    0.17438994    0.00000000    0.07993015    0.22060000
opls_146-90    H    0.74007995    0.50000000    0.12539012    0.10420000
opls_146-91    H    0.55707003    0.50000000    0.18073007    0.08060000
opls_146-92    H    0.62937005    0.50000000    0.22560009    0.10380000
opls_144-93    H    0.73034993    0.50000000    0.24082002    0.08520000
opls_146-94    H    0.87392993    0.50000000    0.15257006    0.10150000
opls_146-95    H    0.96161986    0.50000000    0.17713998    0.22080000
opls_146-96    H    0.90314009    0.50000000    0.30259004    0.10130000
opls_146-97    H    0.18848982    0.50000000    0.27509991    0.10500000
opls_146-98    H    0.63387007    0.50000000    0.96794002    0.22070000
opls_146-99    H    0.67438994    0.50000000    0.07993015    0.22060000
opls_146-100    H    0.75992005    0.00000000    0.12539012    0.10420000
opls_146-101    H    0.94292997    0.00000000    0.18073007    0.08060000
opls_146-102    H    0.87062995    0.00000000    0.22560009    0.10380000
opls_144-103    H    0.76965007    0.00000000    0.24082002    0.08520000
opls_146-104    H    0.62607007    0.00000000    0.15257006    0.10150000
opls_146-105    H    0.53838014    0.00000000    0.17713998    0.22080000
opls_146-106    H    0.59685991    0.00000000    0.30259004    0.10130000
opls_146-107    H    0.31151018    0.00000000    0.27509991    0.10500000
opls_146-108    H    0.86612993    0.00000000    0.96794002    0.22070000
opls_146-109    H    0.82561006    0.00000000    0.07993015    0.22060000
opls_146-110    H    0.25992005    0.50000000    0.12539012    0.10420000
opls_146-111    H    0.44292997    0.50000000    0.18073007    0.08060000
opls_146-112    H    0.37062995    0.50000000    0.22560009    0.10380000
opls_144-113    H    0.26965007    0.50000000    0.24082002    0.08520000
opls_146-114    H    0.12607007    0.50000000    0.15257006    0.10150000
opls_146-115    H    0.03838014    0.50000000    0.17713998    0.22080000
opls_146-116    H    0.09685991    0.50000000    0.30259004    0.10130000
opls_146-117    H    0.81151018    0.50000000    0.27509991    0.10500000
opls_146-118    H    0.36612993    0.50000000    0.96794002    0.22070000
opls_146-119    H    0.32561006    0.50000000    0.07993015    0.22060000
opls_146-120    H    0.75992005    0.00000000    0.87460988    0.10430000
opls_146-121    H    0.94292997    0.00000000    0.81926993    0.08060000
opls_146-122    H    0.87062995    0.00000000    0.77439991    0.10380000
opls_144-123    H    0.76965007    0.00000000    0.75917998    0.08520000
opls_146-124    H    0.62607007    0.00000000    0.84742994    0.10150000
opls_146-125    H    0.53838014    0.00000000    0.82286002    0.22080000
opls_146-126    H    0.59685991    0.00000000    0.69740996    0.10130000
opls_146-127    H    0.31151018    0.00000000    0.72490009    0.10500000
opls_146-128    H    0.86612993    0.00000000    0.03205998    0.22070000
opls_146-129    H    0.82561006    0.00000000    0.92006985    0.22060000
opls_146-130    H    0.25992005    0.50000000    0.87460988    0.10420000
opls_146-131    H    0.44292997    0.50000000    0.81926993    0.08060000
opls_146-132    H    0.37062995    0.50000000    0.77439991    0.10380000
opls_144-133    H    0.26965007    0.50000000    0.75917998    0.08520000
opls_146-134    H    0.12607007    0.50000000    0.84742994    0.10150000
opls_146-135    H    0.03838014    0.50000000    0.82286002    0.22080000
opls_146-136    H    0.09685991    0.50000000    0.69740996    0.10130000
opls_146-137    H    0.81151018    0.50000000    0.72490009    0.10500000
opls_146-138    H    0.36612993    0.50000000    0.03205998    0.22070000
opls_146-139    H    0.32561006    0.50000000    0.92006985    0.22060000
opls_146-140    H    0.24007995    0.00000000    0.87460988    0.10420000
opls_146-141    H    0.05707003    0.00000000    0.81926993    0.08060000
opls_146-142    H    0.12937005    0.00000000    0.77439991    0.10380000
opls_144-143    H    0.23034993    0.00000000    0.75917998    0.08520000
opls_146-144    H    0.37392993    0.00000000    0.84742994    0.10150000
opls_146-145    H    0.46161986    0.00000000    0.82286002    0.22080000
opls_146-146    H    0.40314009    0.00000000    0.69740996    0.10130000
opls_146-147    H    0.68848982    0.00000000    0.72490009    0.10500000
opls_146-148    H    0.13387007    0.00000000    0.03205998    0.22070000
opls_146-149    H    0.17438994    0.00000000    0.92006985    0.22060000
opls_146-150    H    0.74007995    0.50000000    0.87460988    0.10420000
opls_146-151    H    0.55707003    0.50000000    0.81926993    0.08060000
opls_146-152    H    0.62937005    0.50000000    0.77439991    0.10380000
opls_144-153    H    0.73034993    0.50000000    0.75917998    0.08520000
opls_146-154    H    0.87392993    0.50000000    0.84742994    0.10150000
opls_146-155    H    0.96161986    0.50000000    0.82286002    0.22080000
opls_146-156    H    0.90314009    0.50000000    0.69740996    0.10130000
opls_146-157    H    0.18848982    0.50000000    0.72490009    0.10500000
opls_146-158    H    0.63387007    0.50000000    0.03205998    0.22070000
opls_146-159    H    0.67438994    0.50000000    0.92006985    0.22060000
opls_146-160    H    0.00000000    0.00000000    0.85989013    0.22070000
opls_146-161    H    0.50000000    0.50000000    0.85989013    0.22070000
opls_146-162    H    0.00000000    0.00000000    0.14010987    0.22070000
opls_146-163    H    0.50000000    0.50000000    0.14010987    0.22070000
opls_146-164    H    0.50000000    0.33494014    0.50000000    0.22120000
opls_146-165    H    0.00000000    0.83494014    0.50000000    0.22120000
opls_146-166    H    0.50000000    0.66505986    0.50000000    0.22120000
opls_146-167    H    0.00000000    0.16505986    0.50000000    0.22120000
opls_700-168    C    0.50000000    0.55365018    0.46167995    0.01920000
opls_700-169    C    0.50000000    0.60681990    0.46065992    0.01710000
opls_700-170    C    0.50000000    0.64434998    0.42276995    0.05580000
opls_145-171    C    0.50000000    0.73194995    0.39943004    -0.08720000
opls_700-172    C    0.50000000    0.71927990    0.35813013    0.05150000
opls_142-173    C    0.50000000    0.75892018    0.32659000    0.06380000
opls_145-174    C    0.50000000    0.85070009    0.31968003    0.17900000
opls_145-175    C    0.50000000    0.85772013    0.27713014    -0.19180000
opls_145-176    C    0.50000000    0.89132999    0.34528996    -0.18510000
opls_145-177    C    0.50000000    0.90594985    0.26114011    -0.10370000
opls_145-178    C    0.50000000    0.93887986    0.32973002    -0.18710000
opls_700-179    C    0.50000000    0.94835996    0.28703994    0.06510000
opls_145-180    C    0.50000000    0.30338015    0.43014012    -0.14320000
opls_145-181    C    0.50000000    0.33052991    0.34833007    -0.14370000
opls_145-182    C    0.50000000    0.52524005    0.57369991    -0.21050000
opls_145-183    C    0.50000000    0.63314007    0.37944996    -0.14650000
opls_700-184    C    0.00000000    0.05365018    0.46167995    0.01920000
opls_700-185    C    0.00000000    0.10681990    0.46065992    0.01710000
opls_700-186    C    0.00000000    0.14434998    0.42276995    0.05580000
opls_145-187    C    0.00000000    0.23194995    0.39943004    -0.08720000
opls_700-188    C    0.00000000    0.21927990    0.35813013    0.05140000
opls_142-189    C    0.00000000    0.25892018    0.32659000    0.06390000
opls_145-190    C    0.00000000    0.35070009    0.31968003    0.17900000
opls_145-191    C    0.00000000    0.35772013    0.27713014    -0.19180000
opls_145-192    C    0.00000000    0.39132999    0.34528996    -0.18500000
opls_145-193    C    0.00000000    0.40594985    0.26114011    -0.10370000
opls_145-194    C    0.00000000    0.43887986    0.32973002    -0.18710000
opls_700-195    C    0.00000000    0.44835996    0.28703994    0.06510000
opls_145-196    C    0.00000000    0.80338015    0.43014012    -0.14320000
opls_145-197    C    0.00000000    0.83052991    0.34833007    -0.14370000
opls_145-198    C    0.00000000    0.02524005    0.57369991    -0.21040000
opls_145-199    C    0.00000000    0.13314007    0.37944996    -0.14650000
opls_700-200    C    0.50000000    0.44634982    0.46167995    0.01920000
opls_700-201    C    0.50000000    0.39318010    0.46065992    0.01710000
opls_700-202    C    0.50000000    0.35565002    0.42276995    0.05580000
opls_145-203    C    0.50000000    0.26805005    0.39943004    -0.08720000
opls_700-204    C    0.50000000    0.28072010    0.35813013    0.05140000
opls_142-205    C    0.50000000    0.24107982    0.32659000    0.06380000
opls_145-206    C    0.50000000    0.14929991    0.31968003    0.17900000
opls_145-207    C    0.50000000    0.14227987    0.27713014    -0.19180000
opls_145-208    C    0.50000000    0.10867001    0.34528996    -0.18510000
opls_145-209    C    0.50000000    0.09405015    0.26114011    -0.10370000
opls_145-210    C    0.50000000    0.06112014    0.32973002    -0.18700000
opls_700-211    C    0.50000000    0.05164004    0.28703994    0.06510000
opls_145-212    C    0.50000000    0.69661985    0.43014012    -0.14310000
opls_145-213    C    0.50000000    0.66947009    0.34833007    -0.14370000
opls_145-214    C    0.50000000    0.47475995    0.57369991    -0.21050000
opls_145-215    C    0.50000000    0.36685993    0.37944996    -0.14650000
opls_700-216    C    0.00000000    0.94634982    0.46167995    0.01920000
opls_700-217    C    0.00000000    0.89318010    0.46065992    0.01710000
opls_700-218    C    0.00000000    0.85565002    0.42276995    0.05580000
opls_145-219    C    0.00000000    0.76805005    0.39943004    -0.08720000
opls_700-220    C    0.00000000    0.78072010    0.35813013    0.05140000
opls_142-221    C    0.00000000    0.74107982    0.32659000    0.06380000
opls_145-222    C    0.00000000    0.64929991    0.31968003    0.17900000
opls_145-223    C    0.00000000    0.64227987    0.27713014    -0.19180000
opls_145-224    C    0.00000000    0.60867001    0.34528996    -0.18510000
opls_145-225    C    0.00000000    0.59405015    0.26114011    -0.10370000
opls_145-226    C    0.00000000    0.56112014    0.32973002    -0.18710000
opls_700-227    C    0.00000000    0.55164004    0.28703994    0.06510000
opls_145-228    C    0.00000000    0.19661985    0.43014012    -0.14320000
opls_145-229    C    0.00000000    0.16947009    0.34833007    -0.14370000
opls_145-230    C    0.00000000    0.97475995    0.57369991    -0.21050000
opls_145-231    C    0.00000000    0.86685993    0.37944996    -0.14650000
opls_700-232    C    0.50000000    0.55365018    0.53832005    0.01920000
opls_700-233    C    0.50000000    0.60681990    0.53934008    0.01710000
opls_700-234    C    0.50000000    0.64434998    0.57723005    0.05580000
opls_145-235    C    0.50000000    0.73194995    0.60056996    -0.08720000
opls_700-236    C    0.50000000    0.71927990    0.64186987    0.05140000
opls_142-237    C    0.50000000    0.75892018    0.67341000    0.06380000
opls_145-238    C    0.50000000    0.85070009    0.68031997    0.17900000
opls_145-239    C    0.50000000    0.85772013    0.72286986    -0.19180000
opls_145-240    C    0.50000000    0.89132999    0.65471004    -0.18510000
opls_145-241    C    0.50000000    0.90594985    0.73885989    -0.10370000
opls_145-242    C    0.50000000    0.93887986    0.67026998    -0.18710000
opls_700-243    C    0.50000000    0.94835996    0.71296006    0.06510000
opls_145-244    C    0.50000000    0.30338015    0.56985988    -0.14310000
opls_145-245    C    0.50000000    0.33052991    0.65166993    -0.14370000
opls_145-246    C    0.50000000    0.52524005    0.42630009    -0.21050000
opls_145-247    C    0.50000000    0.63314007    0.62055004    -0.14640000
opls_700-248    C    0.00000000    0.05365018    0.53832005    0.01920000
opls_700-249    C    0.00000000    0.10681990    0.53934008    0.01710000
opls_700-250    C    0.00000000    0.14434998    0.57723005    0.05580000
opls_145-251    C    0.00000000    0.23194995    0.60056996    -0.08720000
opls_700-252    C    0.00000000    0.21927990    0.64186987    0.05140000
opls_142-253    C    0.00000000    0.25892018    0.67341000    0.06380000
opls_145-254    C    0.00000000    0.35070009    0.68031997    0.17900000
opls_145-255    C    0.00000000    0.35772013    0.72286986    -0.19180000
opls_145-256    C    0.00000000    0.39132999    0.65471004    -0.18510000
opls_145-257    C    0.00000000    0.40594985    0.73885989    -0.10360000
opls_145-258    C    0.00000000    0.43887986    0.67026998    -0.18700000
opls_700-259    C    0.00000000    0.44835996    0.71296006    0.06510000
opls_145-260    C    0.00000000    0.80338015    0.56985988    -0.14320000
opls_145-261    C    0.00000000    0.83052991    0.65166993    -0.14370000
opls_145-262    C    0.00000000    0.02524005    0.42630009    -0.21050000
opls_145-263    C    0.00000000    0.13314007    0.62055004    -0.14650000
opls_700-264    C    0.50000000    0.44634982    0.53832005    0.01920000
opls_700-265    C    0.50000000    0.39318010    0.53934008    0.01710000
opls_700-266    C    0.50000000    0.35565002    0.57723005    0.05580000
opls_145-267    C    0.50000000    0.26805005    0.60056996    -0.08720000
opls_700-268    C    0.50000000    0.28072010    0.64186987    0.05140000
opls_142-269    C    0.50000000    0.24107982    0.67341000    0.06380000
opls_145-270    C    0.50000000    0.14929991    0.68031997    0.17910000
opls_145-271    C    0.50000000    0.14227987    0.72286986    -0.19170000
opls_145-272    C    0.50000000    0.10867001    0.65471004    -0.18510000
opls_145-273    C    0.50000000    0.09405015    0.73885989    -0.10370000
opls_145-274    C    0.50000000    0.06112014    0.67026998    -0.18710000
opls_700-275    C    0.50000000    0.05164004    0.71296006    0.06510000
opls_145-276    C    0.50000000    0.69661985    0.56985988    -0.14320000
opls_145-277    C    0.50000000    0.66947009    0.65166993    -0.14370000
opls_145-278    C    0.50000000    0.47475995    0.42630009    -0.21050000
opls_145-279    C    0.50000000    0.36685993    0.62055004    -0.14650000
opls_700-280    C    0.00000000    0.94634982    0.53832005    0.01920000
opls_700-281    C    0.00000000    0.89318010    0.53934008    0.01710000
opls_700-282    C    0.00000000    0.85565002    0.57723005    0.05580000
opls_145-283    C    0.00000000    0.76805005    0.60056996    -0.08720000
opls_700-284    C    0.00000000    0.78072010    0.64186987    0.05140000
opls_142-285    C    0.00000000    0.74107982    0.67341000    0.06380000
opls_145-286    C    0.00000000    0.64929991    0.68031997    0.17900000
opls_145-287    C    0.00000000    0.64227987    0.72286986    -0.19180000
opls_145-288    C    0.00000000    0.60867001    0.65471004    -0.18500000
opls_145-289    C    0.00000000    0.59405015    0.73885989    -0.10370000
opls_145-290    C    0.00000000    0.56112014    0.67026998    -0.18710000
opls_700-291    C    0.00000000    0.55164004    0.71296006    0.06510000
opls_145-292    C    0.00000000    0.19661985    0.56985988    -0.14320000
opls_145-293    C    0.00000000    0.16947009    0.65166993    -0.14370000
opls_145-294    C    0.00000000    0.97475995    0.42630009    -0.21040000
opls_145-295    C    0.00000000    0.86685993    0.62055004    -0.14650000
opls_700-296    C    0.04965007    0.00000000    0.95476015    0.02500000
opls_145-297    C    0.09535013    0.00000000    0.97895009    -0.21070000
opls_700-298    C    0.10144992    0.00000000    0.87946994    0.05580000
opls_145-299    C    0.19925997    0.00000000    0.86290011    -0.14490000
opls_700-300    C    0.19044996    0.00000000    0.82079014    0.05620000
opls_142-301    C    0.23680005    0.00000000    0.79208015    0.06290000
opls_145-302    C    0.33659998    0.00000000    0.78847008    0.17740000
opls_145-303    C    0.34505002    0.00000000    0.74598013    -0.18430000
opls_145-304    C    0.38063999    0.00000000    0.81453007    -0.19400000
opls_145-305    C    0.39778996    0.00000000    0.73046015    -0.18580000
opls_145-306    C    0.43290989    0.00000000    0.79933996    -0.18600000
opls_700-307    C    0.44368004    0.00000000    0.75668985    0.06500000
opls_145-308    C    0.84301997    0.00000000    0.89093008    -0.14560000
opls_145-309    C    0.86236993    0.00000000    0.80711993    -0.12800000
opls_700-310    C    0.05117994    0.00000000    0.09000012    0.01590000
opls_145-311    C    0.90535013    0.00000000    0.83523997    -0.14840000
opls_700-312    C    0.54965007    0.50000000    0.95476015    0.02500000
opls_145-313    C    0.59535013    0.50000000    0.97895009    -0.21070000
opls_700-314    C    0.60144992    0.50000000    0.87946994    0.05580000
opls_145-315    C    0.69925997    0.50000000    0.86290011    -0.14490000
opls_700-316    C    0.69044996    0.50000000    0.82079014    0.05620000
opls_142-317    C    0.73680005    0.50000000    0.79208015    0.06290000
opls_145-318    C    0.83659998    0.50000000    0.78847008    0.17740000
opls_145-319    C    0.84505002    0.50000000    0.74598013    -0.18430000
opls_145-320    C    0.88063999    0.50000000    0.81453007    -0.19400000
opls_145-321    C    0.89778996    0.50000000    0.73046015    -0.18590000
opls_145-322    C    0.93290989    0.50000000    0.79933996    -0.18600000
opls_700-323    C    0.94368004    0.50000000    0.75668985    0.06500000
opls_145-324    C    0.34301997    0.50000000    0.89093008    -0.14570000
opls_145-325    C    0.36236993    0.50000000    0.80711993    -0.12800000
opls_700-326    C    0.55117994    0.50000000    0.09000012    0.01590000
opls_145-327    C    0.40535013    0.50000000    0.83523997    -0.14840000
opls_700-328    C    0.95034993    0.00000000    0.95476015    0.02500000
opls_145-329    C    0.90464987    0.00000000    0.97895009    -0.21070000
opls_700-330    C    0.89855008    0.00000000    0.87946994    0.05580000
opls_145-331    C    0.80074003    0.00000000    0.86290011    -0.14490000
opls_700-332    C    0.80955004    0.00000000    0.82079014    0.05620000
opls_142-333    C    0.76319995    0.00000000    0.79208015    0.06290000
opls_145-334    C    0.66340002    0.00000000    0.78847008    0.17740000
opls_145-335    C    0.65494998    0.00000000    0.74598013    -0.18430000
opls_145-336    C    0.61936001    0.00000000    0.81453007    -0.19400000
opls_145-337    C    0.60221004    0.00000000    0.73046015    -0.18590000
opls_145-338    C    0.56709011    0.00000000    0.79933996    -0.18600000
opls_700-339    C    0.55631996    0.00000000    0.75668985    0.06500000
opls_145-340    C    0.15698003    0.00000000    0.89093008    -0.14570000
opls_145-341    C    0.13763007    0.00000000    0.80711993    -0.12800000
opls_700-342    C    0.94882006    0.00000000    0.09000012    0.01590000
opls_145-343    C    0.09464987    0.00000000    0.83523997    -0.14830000
opls_700-344    C    0.45034993    0.50000000    0.95476015    0.02500000
opls_145-345    C    0.40464987    0.50000000    0.97895009    -0.21070000
opls_700-346    C    0.39855008    0.50000000    0.87946994    0.05580000
opls_145-347    C    0.30074003    0.50000000    0.86290011    -0.14490000
opls_700-348    C    0.30955004    0.50000000    0.82079014    0.05620000
opls_142-349    C    0.26319995    0.50000000    0.79208015    0.06290000
opls_145-350    C    0.16340002    0.50000000    0.78847008    0.17740000
opls_145-351    C    0.15494998    0.50000000    0.74598013    -0.18430000
opls_145-352    C    0.11936001    0.50000000    0.81453007    -0.19400000
opls_145-353    C    0.10221004    0.50000000    0.73046015    -0.18590000
opls_145-354    C    0.06709011    0.50000000    0.79933996    -0.18600000
opls_700-355    C    0.05631996    0.50000000    0.75668985    0.06500000
opls_145-356    C    0.65698003    0.50000000    0.89093008    -0.14570000
opls_145-357    C    0.63763007    0.50000000    0.80711993    -0.12800000
opls_700-358    C    0.44882006    0.50000000    0.09000012    0.01590000
opls_145-359    C    0.59464987    0.50000000    0.83523997    -0.14840000
opls_700-360    C    0.95034993    0.00000000    0.04523985    0.02500000
opls_145-361    C    0.90464987    0.00000000    0.02104991    -0.21070000
opls_700-362    C    0.89855008    0.00000000    0.12053006    0.05580000
opls_145-363    C    0.80074003    0.00000000    0.13709989    -0.14490000
opls_700-364    C    0.80955004    0.00000000    0.17920986    0.05620000
opls_142-365    C    0.76319995    0.00000000    0.20791985    0.06290000
opls_145-366    C    0.66340002    0.00000000    0.21152992    0.17740000
opls_145-367    C    0.65494998    0.00000000    0.25401987    -0.18430000
opls_145-368    C    0.61936001    0.00000000    0.18546993    -0.19400000
opls_145-369    C    0.60221004    0.00000000    0.26953985    -0.18590000
opls_145-370    C    0.56709011    0.00000000    0.20066004    -0.18600000
opls_700-371    C    0.55631996    0.00000000    0.24330985    0.06510000
opls_145-372    C    0.15698003    0.00000000    0.10906992    -0.14570000
opls_145-373    C    0.13763007    0.00000000    0.19288007    -0.12790000
opls_700-374    C    0.94882006    0.00000000    0.90999988    0.01590000
opls_145-375    C    0.09464987    0.00000000    0.16476003    -0.14830000
opls_700-376    C    0.45034993    0.50000000    0.04523985    0.02500000
opls_145-377    C    0.40464987    0.50000000    0.02104991    -0.21070000
opls_700-378    C    0.39855008    0.50000000    0.12053006    0.05580000
opls_145-379    C    0.30074003    0.50000000    0.13709989    -0.14490000
opls_700-380    C    0.30955004    0.50000000    0.17920986    0.05620000
opls_142-381    C    0.26319995    0.50000000    0.20791985    0.06290000
opls_145-382    C    0.16340002    0.50000000    0.21152992    0.17750000
opls_145-383    C    0.15494998    0.50000000    0.25401987    -0.18430000
opls_145-384    C    0.11936001    0.50000000    0.18546993    -0.19390000
opls_145-385    C    0.10221004    0.50000000    0.26953985    -0.18590000
opls_145-386    C    0.06709011    0.50000000    0.20066004    -0.18600000
opls_700-387    C    0.05631996    0.50000000    0.24330985    0.06500000
opls_145-388    C    0.65698003    0.50000000    0.10906992    -0.14570000
opls_145-389    C    0.63763007    0.50000000    0.19288007    -0.12800000
opls_700-390    C    0.44882006    0.50000000    0.90999988    0.01590000
opls_145-391    C    0.59464987    0.50000000    0.16476003    -0.14840000
opls_700-392    C    0.04965007    0.00000000    0.04523985    0.02500000
opls_145-393    C    0.09535013    0.00000000    0.02104991    -0.21070000
opls_700-394    C    0.10144992    0.00000000    0.12053006    0.05580000
opls_145-395    C    0.19925997    0.00000000    0.13709989    -0.14490000
opls_700-396    C    0.19044996    0.00000000    0.17920986    0.05620000
opls_142-397    C    0.23680005    0.00000000    0.20791985    0.06290000
opls_145-398    C    0.33659998    0.00000000    0.21152992    0.17740000
opls_145-399    C    0.34505002    0.00000000    0.25401987    -0.18430000
opls_145-400    C    0.38063999    0.00000000    0.18546993    -0.19400000
opls_145-401    C    0.39778996    0.00000000    0.26953985    -0.18580000
opls_145-402    C    0.43290989    0.00000000    0.20066004    -0.18600000
opls_700-403    C    0.44368004    0.00000000    0.24330985    0.06500000
opls_145-404    C    0.84301997    0.00000000    0.10906992    -0.14570000
opls_145-405    C    0.86236993    0.00000000    0.19288007    -0.12800000
opls_700-406    C    0.05117994    0.00000000    0.90999988    0.01590000
opls_145-407    C    0.90535013    0.00000000    0.16476003    -0.14840000
opls_700-408    C    0.54965007    0.50000000    0.04523985    0.02500000
opls_145-409    C    0.59535013    0.50000000    0.02104991    -0.21070000
opls_700-410    C    0.60144992    0.50000000    0.12053006    0.05580000
opls_145-411    C    0.69925997    0.50000000    0.13709989    -0.14490000
opls_700-412    C    0.69044996    0.50000000    0.17920986    0.05620000
opls_142-413    C    0.73680005    0.50000000    0.20791985    0.06290000
opls_145-414    C    0.83659998    0.50000000    0.21152992    0.17740000
opls_145-415    C    0.84505002    0.50000000    0.25401987    -0.18430000
opls_145-416    C    0.88063999    0.50000000    0.18546993    -0.19400000
opls_145-417    C    0.89778996    0.50000000    0.26953985    -0.18590000
opls_145-418    C    0.93290989    0.50000000    0.20066004    -0.18590000
opls_700-419    C    0.94368004    0.50000000    0.24330985    0.06500000
opls_145-420    C    0.34301997    0.50000000    0.10906992    -0.14570000
opls_145-421    C    0.36236993    0.50000000    0.19288007    -0.12800000
opls_700-422    C    0.55117994    0.50000000    0.90999988    0.01590000
opls_145-423    C    0.40535013    0.50000000    0.16476003    -0.14840000
opls_701-424    C    0.50000000    0.00000000    0.73489013    0.02550000
opls_701-425    C    0.00000000    0.50000000    0.73489013    0.02550000
opls_701-426    C    0.50000000    0.00000000    0.26510987    0.02550000
opls_701-427    C    0.00000000    0.50000000    0.26510987    0.02550000
opls_700-428    C    0.00000000    0.00000000    0.02280991    -0.03240000
opls_145-429    C    0.00000000    0.00000000    0.89125995    -0.09740000
opls_700-430    C    0.50000000    0.50000000    0.02280991    -0.03240000
opls_145-431    C    0.50000000    0.50000000    0.89125995    -0.09740000
opls_700-432    C    0.00000000    0.00000000    0.97719009    -0.03240000
opls_145-433    C    0.00000000    0.00000000    0.10874005    -0.09740000
opls_700-434    C    0.50000000    0.50000000    0.97719009    -0.03240000
opls_145-435    C    0.50000000    0.50000000    0.10874005    -0.09740000
opls_700-436    C    0.50000000    0.47299004    0.50000000    -0.03220000
opls_145-437    C    0.50000000    0.37157000    0.50000000    -0.13930000
opls_700-438    C    0.00000000    0.97299004    0.50000000    -0.03210000
opls_145-439    C    0.00000000    0.87157000    0.50000000    -0.13930000
opls_700-440    C    0.50000000    0.52700996    0.50000000    -0.03220000
opls_145-441    C    0.50000000    0.62843000    0.50000000    -0.13930000
opls_700-442    C    0.00000000    0.02700996    0.50000000    -0.03220000
opls_145-443    C    0.00000000    0.12843000    0.50000000    -0.13930000
opls_750-444    N    0.50000000    0.80399011    0.33983012    -0.38620000
opls_750-445    N    0.00000000    0.30399011    0.33983012    -0.38620000
opls_750-446    N    0.50000000    0.19600989    0.33983012    -0.38620000
opls_750-447    N    0.00000000    0.69600989    0.33983012    -0.38620000
opls_750-448    N    0.50000000    0.80399011    0.66016988    -0.38610000
opls_750-449    N    0.00000000    0.30399011    0.66016988    -0.38620000
opls_750-450    N    0.50000000    0.19600989    0.66016988    -0.38620000
opls_750-451    N    0.00000000    0.69600989    0.66016988    -0.38610000
opls_750-452    N    0.28485999    0.00000000    0.80768006    -0.38630000
opls_750-453    N    0.78485999    0.50000000    0.80768006    -0.38630000
opls_750-454    N    0.71514001    0.00000000    0.80768006    -0.38620000
opls_750-455    N    0.21514001    0.50000000    0.80768006    -0.38630000
opls_750-456    N    0.71514001    0.00000000    0.19231994    -0.38620000
opls_750-457    N    0.21514001    0.50000000    0.19231994    -0.38630000
opls_750-458    N    0.28485999    0.00000000    0.19231994    -0.38630000
opls_750-459    N    0.78485999    0.50000000    0.19231994    -0.38630000
