#======================================================================
# Crystal Data Generated By AuToFF
#----------------------------------------------------------------------

data_AuToFF_phase_1

_cell_length_a                         39.3600
_cell_length_b                         35.8100
_cell_length_c                         37.5400
_cell_angle_alpha                      90.00
_cell_angle_beta                       90.00
_cell_angle_gamma                      90.00
_symmetry_space_group_name_H-M_alt     'P 1'
_symmetry_space_group_IT_number        1

loop_
_space_group_symop_operation_xyz
   'x, y, z'

loop_
   _atom_site_label
   _atom_site_type_symbol
   _atom_site_fract_x
   _atom_site_fract_y
   _atom_site_fract_z
   _atom_site_charge
opls_700-0    C    0.17189990    0.43690003    0.72950000    0.08840000
opls_142-1    C    0.29700000    0.56529992    0.55379995    0.03180000
opls_700-2    C    0.14769995    0.40409997    0.79979995    0.09340000
opls_700-3    C    0.13500000    0.38749986    0.83720005    0.06790000
opls_145-4    C    0.10880005    0.35939989    0.83740011    -0.07440000
opls_145-5    C    0.18169995    0.44560011    0.98500000    -0.10080000
opls_145-6    C    0.12419995    0.40629992    0.76700000    -0.08680000
opls_145-7    C    0.13639990    0.42209997    0.73209989    -0.09030000
opls_145-8    C    0.16489990    0.43380006    0.95070005    -0.11070000
opls_145-9    C    0.25930005    0.51229992    0.66100000    -0.12520000
opls_145-10    C    0.23260010    0.48539989    0.65629995    0.19250000
opls_145-11    C    0.27580005    0.52860011    0.62850000    -0.12420000
opls_700-12    C    0.18619995    0.42200000    0.01679995    0.06900000
opls_142-13    C    0.18480005    0.45309997    0.69240011    0.04200000
opls_700-14    C    0.15339990    0.39770008    0.94659989    0.06250000
opls_700-15    C    0.13739990    0.38470008    0.90890011    0.06760000
opls_145-16    C    0.11060010    0.35719994    0.90820005    -0.07450000
opls_145-17    C    0.19500000    0.43560011    0.76240011    -0.08970000
opls_145-18    C    0.15850000    0.37390003    0.97829995    -0.10080000
opls_145-19    C    0.17439990    0.38609997    0.01320005    -0.10070000
opls_145-20    C    0.18350000    0.41870008    0.79659989    -0.08970000
opls_145-21    C    0.24039990    0.48970008    0.58579995    -0.12550000
opls_145-22    C    0.26589990    0.51770008    0.59050000    0.19250000
opls_145-23    C    0.22350000    0.47370008    0.61829995    -0.12550000
opls_507-24    C    0.08039990    0.27939989    0.87279995    0.18860000
opls_507-25    C    0.03080005    0.32580006    0.87200000    0.18140000
opls_716-26    C    0.01889990    0.36139989    0.87170005    -0.13770000
opls_716-27    C    0.11719995    0.26939989    0.87329995    -0.12660000
opls_700-28    C    0.06830005    0.31560011    0.87250000    -0.13360000
opls_700-29    C    0.09650000    0.34460011    0.87270005    0.06650000
opls_145-30    C    0.14900000    0.39980006    0.87320005    -0.07710000
opls_700-31    C    0.67189990    0.93690003    0.22950000    0.08840000
opls_142-32    C    0.79700000    0.06529992    0.05379995    0.03180000
opls_700-33    C    0.64769995    0.90409997    0.29979995    0.09340000
opls_700-34    C    0.63500000    0.88750014    0.33720005    0.06790000
opls_145-35    C    0.60880005    0.85939989    0.33740011    -0.07440000
opls_145-36    C    0.68169995    0.94560011    0.48500000    -0.10080000
opls_145-37    C    0.62419995    0.90629992    0.26700000    -0.08680000
opls_145-38    C    0.63639990    0.92209997    0.23209989    -0.09030000
opls_145-39    C    0.66489990    0.93380006    0.45070005    -0.11070000
opls_145-40    C    0.75930005    0.01229992    0.16100000    -0.12520000
opls_145-41    C    0.73260010    0.98539989    0.15629995    0.19250000
opls_145-42    C    0.77580005    0.02860011    0.12850000    -0.12420000
opls_700-43    C    0.68619995    0.92200000    0.51679995    0.06900000
opls_142-44    C    0.68480005    0.95309997    0.19240011    0.04200000
opls_700-45    C    0.65339990    0.89770008    0.44659989    0.06250000
opls_700-46    C    0.63739990    0.88470008    0.40890011    0.06760000
opls_145-47    C    0.61060010    0.85719994    0.40820005    -0.07450000
opls_145-48    C    0.69500000    0.93560011    0.26240011    -0.08970000
opls_145-49    C    0.65850000    0.87390003    0.47829995    -0.10080000
opls_145-50    C    0.67439990    0.88609997    0.51320005    -0.10080000
opls_145-51    C    0.68350000    0.91870008    0.29659989    -0.08970000
opls_145-52    C    0.74039990    0.98970008    0.08579995    -0.12550000
opls_145-53    C    0.76589990    0.01770008    0.09050000    0.19250000
opls_145-54    C    0.72350000    0.97370008    0.11829995    -0.12550000
opls_507-55    C    0.58039990    0.77939989    0.37279995    0.18860000
opls_507-56    C    0.53080005    0.82580006    0.37200000    0.18140000
opls_716-57    C    0.51889990    0.86139989    0.37170005    -0.13770000
opls_716-58    C    0.61719995    0.76939989    0.37329995    -0.12660000
opls_700-59    C    0.56830005    0.81560011    0.37250000    -0.13350000
opls_700-60    C    0.59650000    0.84460011    0.37270005    0.06650000
opls_145-61    C    0.64900000    0.89980006    0.37320005    -0.07710000
opls_700-62    C    0.82810010    0.06309997    0.72950000    0.08840000
opls_142-63    C    0.70300000    0.93470008    0.55379995    0.03180000
opls_700-64    C    0.85230005    0.09590003    0.79979995    0.09340000
opls_700-65    C    0.86500000    0.11249986    0.83720005    0.06790000
opls_145-66    C    0.89119995    0.14060011    0.83740011    -0.07440000
opls_145-67    C    0.81830005    0.05439989    0.98500000    -0.10080000
opls_145-68    C    0.87580005    0.09370008    0.76700000    -0.08680000
opls_145-69    C    0.86360010    0.07790003    0.73209989    -0.09030000
opls_145-70    C    0.83510010    0.06619994    0.95070005    -0.11070000
opls_145-71    C    0.74069995    0.98770008    0.66100000    -0.12520000
opls_145-72    C    0.76739990    0.01460011    0.65629995    0.19250000
opls_145-73    C    0.72419995    0.97139989    0.62850000    -0.12420000
opls_700-74    C    0.81380005    0.07800000    0.01679995    0.06910000
opls_142-75    C    0.81519995    0.04690003    0.69240011    0.04200000
opls_700-76    C    0.84660010    0.10229992    0.94659989    0.06250000
opls_700-77    C    0.86260010    0.11529992    0.90890011    0.06760000
opls_145-78    C    0.88939990    0.14280006    0.90820005    -0.07450000
opls_145-79    C    0.80500000    0.06439989    0.76240011    -0.08970000
opls_145-80    C    0.84150000    0.12609997    0.97829995    -0.10080000
opls_145-81    C    0.82560010    0.11390003    0.01320005    -0.10080000
opls_145-82    C    0.81650000    0.08129992    0.79659989    -0.08970000
opls_145-83    C    0.75960010    0.01029992    0.58579995    -0.12550000
opls_145-84    C    0.73410010    0.98229992    0.59050000    0.19250000
opls_145-85    C    0.77650000    0.02629992    0.61829995    -0.12550000
opls_507-86    C    0.91960010    0.22060011    0.87279995    0.18860000
opls_507-87    C    0.96919995    0.17419994    0.87200000    0.18140000
opls_716-88    C    0.98110010    0.13860011    0.87170005    -0.13770000
opls_716-89    C    0.88280005    0.23060011    0.87329995    -0.12660000
opls_700-90    C    0.93169995    0.18439989    0.87250000    -0.13360000
opls_700-91    C    0.90350000    0.15539989    0.87270005    0.06650000
opls_145-92    C    0.85100000    0.10019994    0.87320005    -0.07710000
opls_700-93    C    0.32810010    0.56309997    0.22950000    0.08840000
opls_142-94    C    0.20300000    0.43470008    0.05379995    0.03180000
opls_700-95    C    0.35230005    0.59590003    0.29979995    0.09340000
opls_700-96    C    0.36500000    0.61249986    0.33720005    0.06790000
opls_145-97    C    0.39119995    0.64060011    0.33740011    -0.07440000
opls_145-98    C    0.31830005    0.55439989    0.48500000    -0.10080000
opls_145-99    C    0.37580005    0.59370008    0.26700000    -0.08680000
opls_145-100    C    0.36360010    0.57790003    0.23209989    -0.09030000
opls_145-101    C    0.33510010    0.56619994    0.45070005    -0.11070000
opls_145-102    C    0.24069995    0.48770008    0.16100000    -0.12510000
opls_145-103    C    0.26739990    0.51460011    0.15629995    0.19250000
opls_145-104    C    0.22419995    0.47139989    0.12850000    -0.12420000
opls_700-105    C    0.31380005    0.57800000    0.51679995    0.06900000
opls_142-106    C    0.31519995    0.54690003    0.19240011    0.04200000
opls_700-107    C    0.34660010    0.60229992    0.44659989    0.06250000
opls_700-108    C    0.36260010    0.61529992    0.40890011    0.06760000
opls_145-109    C    0.38939990    0.64280006    0.40820005    -0.07450000
opls_145-110    C    0.30500000    0.56439989    0.26240011    -0.08970000
opls_145-111    C    0.34150000    0.62609997    0.47829995    -0.10080000
opls_145-112    C    0.32560010    0.61390003    0.51320005    -0.10080000
opls_145-113    C    0.31650000    0.58129992    0.29659989    -0.08970000
opls_145-114    C    0.25960010    0.51029992    0.08579995    -0.12550000
opls_145-115    C    0.23410010    0.48229992    0.09050000    0.19250000
opls_145-116    C    0.27650000    0.52629992    0.11829995    -0.12550000
opls_507-117    C    0.41960010    0.72060011    0.37279995    0.18860000
opls_507-118    C    0.46919995    0.67419994    0.37200000    0.18140000
opls_716-119    C    0.48110010    0.63860011    0.37170005    -0.13770000
opls_716-120    C    0.38280005    0.73060011    0.37329995    -0.12660000
opls_700-121    C    0.43169995    0.68439989    0.37250000    -0.13350000
opls_700-122    C    0.40350000    0.65539989    0.37270005    0.06650000
opls_145-123    C    0.35100000    0.60019994    0.37320005    -0.07710000
opls_700-124    C    0.82810010    0.93690003    0.27050000    0.08840000
opls_142-125    C    0.70300000    0.06529992    0.44620005    0.03180000
opls_700-126    C    0.85230005    0.90409997    0.20020005    0.09340000
opls_700-127    C    0.86500000    0.88750014    0.16279995    0.06790000
opls_145-128    C    0.89119995    0.85939989    0.16259989    -0.07440000
opls_145-129    C    0.81830005    0.94560011    0.01500000    -0.10080000
opls_145-130    C    0.87580005    0.90629992    0.23300000    -0.08680000
opls_145-131    C    0.86360010    0.92209997    0.26790011    -0.09030000
opls_145-132    C    0.83510010    0.93380006    0.04929995    -0.11070000
opls_145-133    C    0.74069995    0.01229992    0.33900000    -0.12520000
opls_145-134    C    0.76739990    0.98539989    0.34370005    0.19250000
opls_145-135    C    0.72419995    0.02860011    0.37150000    -0.12420000
opls_700-136    C    0.81380005    0.92200000    0.98320005    0.06900000
opls_142-137    C    0.81519995    0.95309997    0.30759989    0.04200000
opls_700-138    C    0.84660010    0.89770008    0.05340011    0.06250000
opls_700-139    C    0.86260010    0.88470008    0.09109989    0.06760000
opls_145-140    C    0.88939990    0.85719994    0.09179995    -0.07450000
opls_145-141    C    0.80500000    0.93560011    0.23759989    -0.08970000
opls_145-142    C    0.84150000    0.87390003    0.02170005    -0.10080000
opls_145-143    C    0.82560010    0.88609997    0.98679995    -0.10080000
opls_145-144    C    0.81650000    0.91870008    0.20340011    -0.08970000
opls_145-145    C    0.75960010    0.98970008    0.41420005    -0.12550000
opls_145-146    C    0.73410010    0.01770008    0.40950000    0.19250000
opls_145-147    C    0.77650000    0.97370008    0.38170005    -0.12550000
opls_507-148    C    0.91960010    0.77939989    0.12720005    0.18860000
opls_507-149    C    0.96919995    0.82580006    0.12800000    0.18140000
opls_716-150    C    0.98110010    0.86139989    0.12829995    -0.13770000
opls_716-151    C    0.88280005    0.76939989    0.12670005    -0.12660000
opls_700-152    C    0.93169995    0.81560011    0.12750000    -0.13360000
opls_700-153    C    0.90350000    0.84460011    0.12729995    0.06650000
opls_145-154    C    0.85100000    0.89980006    0.12679995    -0.07710000
opls_700-155    C    0.32810010    0.43690003    0.77050000    0.08840000
opls_142-156    C    0.20300000    0.56529992    0.94620005    0.03180000
opls_700-157    C    0.35230005    0.40409997    0.70020005    0.09340000
opls_700-158    C    0.36500000    0.38749986    0.66279995    0.06790000
opls_145-159    C    0.39119995    0.35939989    0.66259989    -0.07440000
opls_145-160    C    0.31830005    0.44560011    0.51500000    -0.10080000
opls_145-161    C    0.37580005    0.40629992    0.73300000    -0.08680000
opls_145-162    C    0.36360010    0.42209997    0.76790011    -0.09030000
opls_145-163    C    0.33510010    0.43380006    0.54929995    -0.11070000
opls_145-164    C    0.24069995    0.51229992    0.83900000    -0.12520000
opls_145-165    C    0.26739990    0.48539989    0.84370005    0.19250000
opls_145-166    C    0.22419995    0.52860011    0.87150000    -0.12420000
opls_700-167    C    0.31380005    0.42200000    0.48320005    0.06900000
opls_142-168    C    0.31519995    0.45309997    0.80759989    0.04200000
opls_700-169    C    0.34660010    0.39770008    0.55340011    0.06250000
opls_700-170    C    0.36260010    0.38470008    0.59109989    0.06760000
opls_145-171    C    0.38939990    0.35719994    0.59179995    -0.07450000
opls_145-172    C    0.30500000    0.43560011    0.73759989    -0.08970000
opls_145-173    C    0.34150000    0.37390003    0.52170005    -0.10080000
opls_145-174    C    0.32560010    0.38609997    0.48679995    -0.10080000
opls_145-175    C    0.31650000    0.41870008    0.70340011    -0.08970000
opls_145-176    C    0.25960010    0.48970008    0.91420005    -0.12550000
opls_145-177    C    0.23410010    0.51770008    0.90950000    0.19250000
opls_145-178    C    0.27650000    0.47370008    0.88170005    -0.12550000
opls_507-179    C    0.41960010    0.27939989    0.62720005    0.18860000
opls_507-180    C    0.46919995    0.32580006    0.62800000    0.18140000
opls_716-181    C    0.48110010    0.36139989    0.62829995    -0.13770000
opls_716-182    C    0.38280005    0.26939989    0.62670005    -0.12660000
opls_700-183    C    0.43169995    0.31560011    0.62750000    -0.13360000
opls_700-184    C    0.40350000    0.34460011    0.62729995    0.06650000
opls_145-185    C    0.35100000    0.39980006    0.62679995    -0.07710000
opls_700-186    C    0.17189990    0.56309997    0.27050000    0.08840000
opls_142-187    C    0.29700000    0.43470008    0.44620005    0.03180000
opls_700-188    C    0.14769995    0.59590003    0.20020005    0.09340000
opls_700-189    C    0.13500000    0.61249986    0.16279995    0.06790000
opls_145-190    C    0.10880005    0.64060011    0.16259989    -0.07440000
opls_145-191    C    0.18169995    0.55439989    0.01500000    -0.10080000
opls_145-192    C    0.12419995    0.59370008    0.23300000    -0.08680000
opls_145-193    C    0.13639990    0.57790003    0.26790011    -0.09030000
opls_145-194    C    0.16489990    0.56619994    0.04929995    -0.11070000
opls_145-195    C    0.25930005    0.48770008    0.33900000    -0.12520000
opls_145-196    C    0.23260010    0.51460011    0.34370005    0.19250000
opls_145-197    C    0.27580005    0.47139989    0.37150000    -0.12420000
opls_700-198    C    0.18619995    0.57800000    0.98320005    0.06900000
opls_142-199    C    0.18480005    0.54690003    0.30759989    0.04200000
opls_700-200    C    0.15339990    0.60229992    0.05340011    0.06250000
opls_700-201    C    0.13739990    0.61529992    0.09109989    0.06760000
opls_145-202    C    0.11060010    0.64280006    0.09179995    -0.07450000
opls_145-203    C    0.19500000    0.56439989    0.23759989    -0.08970000
opls_145-204    C    0.15850000    0.62609997    0.02170005    -0.10080000
opls_145-205    C    0.17439990    0.61390003    0.98679995    -0.10080000
opls_145-206    C    0.18350000    0.58129992    0.20340011    -0.08970000
opls_145-207    C    0.24039990    0.51029992    0.41420005    -0.12550000
opls_145-208    C    0.26589990    0.48229992    0.40950000    0.19250000
opls_145-209    C    0.22350000    0.52629992    0.38170005    -0.12550000
opls_507-210    C    0.08039990    0.72060011    0.12720005    0.18860000
opls_507-211    C    0.03080005    0.67419994    0.12800000    0.18140000
opls_716-212    C    0.01889990    0.63860011    0.12829995    -0.13770000
opls_716-213    C    0.11719995    0.73060011    0.12670005    -0.12660000
opls_700-214    C    0.06830005    0.68439989    0.12750000    -0.13360000
opls_700-215    C    0.09650000    0.65539989    0.12729995    0.06650000
opls_145-216    C    0.14900000    0.60019994    0.12679995    -0.07710000
opls_700-217    C    0.67189990    0.06309997    0.77050000    0.08840000
opls_142-218    C    0.79700000    0.93470008    0.94620005    0.03180000
opls_700-219    C    0.64769995    0.09590003    0.70020005    0.09340000
opls_700-220    C    0.63500000    0.11249986    0.66279995    0.06790000
opls_145-221    C    0.60880005    0.14060011    0.66259989    -0.07440000
opls_145-222    C    0.68169995    0.05439989    0.51500000    -0.10080000
opls_145-223    C    0.62419995    0.09370008    0.73300000    -0.08680000
opls_145-224    C    0.63639990    0.07790003    0.76790011    -0.09030000
opls_145-225    C    0.66489990    0.06619994    0.54929995    -0.11070000
opls_145-226    C    0.75930005    0.98770008    0.83900000    -0.12510000
opls_145-227    C    0.73260010    0.01460011    0.84370005    0.19250000
opls_145-228    C    0.77580005    0.97139989    0.87150000    -0.12420000
opls_700-229    C    0.68619995    0.07800000    0.48320005    0.06900000
opls_142-230    C    0.68480005    0.04690003    0.80759989    0.04200000
opls_700-231    C    0.65339990    0.10229992    0.55340011    0.06250000
opls_700-232    C    0.63739990    0.11529992    0.59109989    0.06760000
opls_145-233    C    0.61060010    0.14280006    0.59179995    -0.07450000
opls_145-234    C    0.69500000    0.06439989    0.73759989    -0.08970000
opls_145-235    C    0.65850000    0.12609997    0.52170005    -0.10080000
opls_145-236    C    0.67439990    0.11390003    0.48679995    -0.10080000
opls_145-237    C    0.68350000    0.08129992    0.70340011    -0.08970000
opls_145-238    C    0.74039990    0.01029992    0.91420005    -0.12550000
opls_145-239    C    0.76589990    0.98229992    0.90950000    0.19250000
opls_145-240    C    0.72350000    0.02629992    0.88170005    -0.12550000
opls_507-241    C    0.58039990    0.22060011    0.62720005    0.18860000
opls_507-242    C    0.53080005    0.17419994    0.62800000    0.18140000
opls_716-243    C    0.51889990    0.13860011    0.62829995    -0.13770000
opls_716-244    C    0.61719995    0.23060011    0.62670005    -0.12660000
opls_700-245    C    0.56830005    0.18439989    0.62750000    -0.13360000
opls_700-246    C    0.59650000    0.15539989    0.62729995    0.06650000
opls_145-247    C    0.64900000    0.10019994    0.62679995    -0.07710000
opls_700-248    C    0.82810010    0.56309997    0.27050000    0.08840000
opls_142-249    C    0.70300000    0.43470008    0.44620005    0.03180000
opls_700-250    C    0.85230005    0.59590003    0.20020005    0.09340000
opls_700-251    C    0.86500000    0.61249986    0.16279995    0.06790000
opls_145-252    C    0.89119995    0.64060011    0.16259989    -0.07440000
opls_145-253    C    0.81830005    0.55439989    0.01500000    -0.10080000
opls_145-254    C    0.87580005    0.59370008    0.23300000    -0.08680000
opls_145-255    C    0.86360010    0.57790003    0.26790011    -0.09030000
opls_145-256    C    0.83510010    0.56619994    0.04929995    -0.11070000
opls_145-257    C    0.74069995    0.48770008    0.33900000    -0.12520000
opls_145-258    C    0.76739990    0.51460011    0.34370005    0.19250000
opls_145-259    C    0.72419995    0.47139989    0.37150000    -0.12420000
opls_700-260    C    0.81380005    0.57800000    0.98320005    0.06900000
opls_142-261    C    0.81519995    0.54690003    0.30759989    0.04200000
opls_700-262    C    0.84660010    0.60229992    0.05340011    0.06250000
opls_700-263    C    0.86260010    0.61529992    0.09109989    0.06760000
opls_145-264    C    0.88939990    0.64280006    0.09179995    -0.07450000
opls_145-265    C    0.80500000    0.56439989    0.23759989    -0.08970000
opls_145-266    C    0.84150000    0.62609997    0.02170005    -0.10080000
opls_145-267    C    0.82560010    0.61390003    0.98679995    -0.10080000
opls_145-268    C    0.81650000    0.58129992    0.20340011    -0.08970000
opls_145-269    C    0.75960010    0.51029992    0.41420005    -0.12550000
opls_145-270    C    0.73410010    0.48229992    0.40950000    0.19250000
opls_145-271    C    0.77650000    0.52629992    0.38170005    -0.12550000
opls_507-272    C    0.91960010    0.72060011    0.12720005    0.18860000
opls_507-273    C    0.96919995    0.67419994    0.12800000    0.18140000
opls_716-274    C    0.98110010    0.63860011    0.12829995    -0.13770000
opls_716-275    C    0.88280005    0.73060011    0.12670005    -0.12660000
opls_700-276    C    0.93169995    0.68439989    0.12750000    -0.13360000
opls_700-277    C    0.90350000    0.65539989    0.12729995    0.06650000
opls_145-278    C    0.85100000    0.60019994    0.12679995    -0.07710000
opls_700-279    C    0.32810010    0.06309997    0.77050000    0.08840000
opls_142-280    C    0.20300000    0.93470008    0.94620005    0.03180000
opls_700-281    C    0.35230005    0.09590003    0.70020005    0.09340000
opls_700-282    C    0.36500000    0.11249986    0.66279995    0.06790000
opls_145-283    C    0.39119995    0.14060011    0.66259989    -0.07440000
opls_145-284    C    0.31830005    0.05439989    0.51500000    -0.10080000
opls_145-285    C    0.37580005    0.09370008    0.73300000    -0.08680000
opls_145-286    C    0.36360010    0.07790003    0.76790011    -0.09030000
opls_145-287    C    0.33510010    0.06619994    0.54929995    -0.11070000
opls_145-288    C    0.24069995    0.98770008    0.83900000    -0.12520000
opls_145-289    C    0.26739990    0.01460011    0.84370005    0.19250000
opls_145-290    C    0.22419995    0.97139989    0.87150000    -0.12420000
opls_700-291    C    0.31380005    0.07800000    0.48320005    0.06900000
opls_142-292    C    0.31519995    0.04690003    0.80759989    0.04200000
opls_700-293    C    0.34660010    0.10229992    0.55340011    0.06250000
opls_700-294    C    0.36260010    0.11529992    0.59109989    0.06760000
opls_145-295    C    0.38939990    0.14280006    0.59179995    -0.07450000
opls_145-296    C    0.30500000    0.06439989    0.73759989    -0.08970000
opls_145-297    C    0.34150000    0.12609997    0.52170005    -0.10080000
opls_145-298    C    0.32560010    0.11390003    0.48679995    -0.10080000
opls_145-299    C    0.31650000    0.08129992    0.70340011    -0.08970000
opls_145-300    C    0.25960010    0.01029992    0.91420005    -0.12550000
opls_145-301    C    0.23410010    0.98229992    0.90950000    0.19250000
opls_145-302    C    0.27650000    0.02629992    0.88170005    -0.12550000
opls_507-303    C    0.41960010    0.22060011    0.62720005    0.18860000
opls_507-304    C    0.46919995    0.17419994    0.62800000    0.18140000
opls_716-305    C    0.48110010    0.13860011    0.62829995    -0.13770000
opls_716-306    C    0.38280005    0.23060011    0.62670005    -0.12660000
opls_700-307    C    0.43169995    0.18439989    0.62750000    -0.13360000
opls_700-308    C    0.40350000    0.15539989    0.62729995    0.06650000
opls_145-309    C    0.35100000    0.10019994    0.62679995    -0.07710000
opls_700-310    C    0.17189990    0.93690003    0.27050000    0.08840000
opls_142-311    C    0.29700000    0.06529992    0.44620005    0.03180000
opls_700-312    C    0.14769995    0.90409997    0.20020005    0.09340000
opls_700-313    C    0.13500000    0.88750014    0.16279995    0.06790000
opls_145-314    C    0.10880005    0.85939989    0.16259989    -0.07440000
opls_145-315    C    0.18169995    0.94560011    0.01500000    -0.10080000
opls_145-316    C    0.12419995    0.90629992    0.23300000    -0.08680000
opls_145-317    C    0.13639990    0.92209997    0.26790011    -0.09030000
opls_145-318    C    0.16489990    0.93380006    0.04929995    -0.11070000
opls_145-319    C    0.25930005    0.01229992    0.33900000    -0.12520000
opls_145-320    C    0.23260010    0.98539989    0.34370005    0.19250000
opls_145-321    C    0.27580005    0.02860011    0.37150000    -0.12420000
opls_700-322    C    0.18619995    0.92200000    0.98320005    0.06900000
opls_142-323    C    0.18480005    0.95309997    0.30759989    0.04200000
opls_700-324    C    0.15339990    0.89770008    0.05340011    0.06250000
opls_700-325    C    0.13739990    0.88470008    0.09109989    0.06760000
opls_145-326    C    0.11060010    0.85719994    0.09179995    -0.07450000
opls_145-327    C    0.19500000    0.93560011    0.23759989    -0.08970000
opls_145-328    C    0.15850000    0.87390003    0.02170005    -0.10070000
opls_145-329    C    0.17439990    0.88609997    0.98679995    -0.10080000
opls_145-330    C    0.18350000    0.91870008    0.20340011    -0.08970000
opls_145-331    C    0.24039990    0.98970008    0.41420005    -0.12550000
opls_145-332    C    0.26589990    0.01770008    0.40950000    0.19250000
opls_145-333    C    0.22350000    0.97370008    0.38170005    -0.12550000
opls_507-334    C    0.08039990    0.77939989    0.12720005    0.18860000
opls_507-335    C    0.03080005    0.82580006    0.12800000    0.18140000
opls_716-336    C    0.01889990    0.86139989    0.12829995    -0.13770000
opls_716-337    C    0.11719995    0.76939989    0.12670005    -0.12660000
opls_700-338    C    0.06830005    0.81560011    0.12750000    -0.13360000
opls_700-339    C    0.09650000    0.84460011    0.12729995    0.06650000
opls_145-340    C    0.14900000    0.89980006    0.12679995    -0.07710000
opls_700-341    C    0.67189990    0.43690003    0.77050000    0.08840000
opls_142-342    C    0.79700000    0.56529992    0.94620005    0.03180000
opls_700-343    C    0.64769995    0.40409997    0.70020005    0.09340000
opls_700-344    C    0.63500000    0.38749986    0.66279995    0.06790000
opls_145-345    C    0.60880005    0.35939989    0.66259989    -0.07440000
opls_145-346    C    0.68169995    0.44560011    0.51500000    -0.10080000
opls_145-347    C    0.62419995    0.40629992    0.73300000    -0.08680000
opls_145-348    C    0.63639990    0.42209997    0.76790011    -0.09030000
opls_145-349    C    0.66489990    0.43380006    0.54929995    -0.11070000
opls_145-350    C    0.75930005    0.51229992    0.83900000    -0.12520000
opls_145-351    C    0.73260010    0.48539989    0.84370005    0.19250000
opls_145-352    C    0.77580005    0.52860011    0.87150000    -0.12410000
opls_700-353    C    0.68619995    0.42200000    0.48320005    0.06900000
opls_142-354    C    0.68480005    0.45309997    0.80759989    0.04200000
opls_700-355    C    0.65339990    0.39770008    0.55340011    0.06250000
opls_700-356    C    0.63739990    0.38470008    0.59109989    0.06760000
opls_145-357    C    0.61060010    0.35719994    0.59179995    -0.07450000
opls_145-358    C    0.69500000    0.43560011    0.73759989    -0.08970000
opls_145-359    C    0.65850000    0.37390003    0.52170005    -0.10080000
opls_145-360    C    0.67439990    0.38609997    0.48679995    -0.10080000
opls_145-361    C    0.68350000    0.41870008    0.70340011    -0.08970000
opls_145-362    C    0.74039990    0.48970008    0.91420005    -0.12540000
opls_145-363    C    0.76589990    0.51770008    0.90950000    0.19250000
opls_145-364    C    0.72350000    0.47370008    0.88170005    -0.12550000
opls_507-365    C    0.58039990    0.27939989    0.62720005    0.18860000
opls_507-366    C    0.53080005    0.32580006    0.62800000    0.18140000
opls_716-367    C    0.51889990    0.36139989    0.62829995    -0.13770000
opls_716-368    C    0.61719995    0.26939989    0.62670005    -0.12660000
opls_700-369    C    0.56830005    0.31560011    0.62750000    -0.13360000
opls_700-370    C    0.59650000    0.34460011    0.62729995    0.06660000
opls_145-371    C    0.64900000    0.39980006    0.62679995    -0.07710000
opls_700-372    C    0.17189990    0.06309997    0.72950000    0.08840000
opls_142-373    C    0.29700000    0.93470008    0.55379995    0.03180000
opls_700-374    C    0.14769995    0.09590003    0.79979995    0.09340000
opls_700-375    C    0.13500000    0.11249986    0.83720005    0.06790000
opls_145-376    C    0.10880005    0.14060011    0.83740011    -0.07440000
opls_145-377    C    0.18169995    0.05439989    0.98500000    -0.10080000
opls_145-378    C    0.12419995    0.09370008    0.76700000    -0.08680000
opls_145-379    C    0.13639990    0.07790003    0.73209989    -0.09030000
opls_145-380    C    0.16489990    0.06619994    0.95070005    -0.11070000
opls_145-381    C    0.25930005    0.98770008    0.66100000    -0.12520000
opls_145-382    C    0.23260010    0.01460011    0.65629995    0.19250000
opls_145-383    C    0.27580005    0.97139989    0.62850000    -0.12420000
opls_700-384    C    0.18619995    0.07800000    0.01679995    0.06900000
opls_142-385    C    0.18480005    0.04690003    0.69240011    0.04200000
opls_700-386    C    0.15339990    0.10229992    0.94659989    0.06250000
opls_700-387    C    0.13739990    0.11529992    0.90890011    0.06760000
opls_145-388    C    0.11060010    0.14280006    0.90820005    -0.07450000
opls_145-389    C    0.19500000    0.06439989    0.76240011    -0.08970000
opls_145-390    C    0.15850000    0.12609997    0.97829995    -0.10080000
opls_145-391    C    0.17439990    0.11390003    0.01320005    -0.10080000
opls_145-392    C    0.18350000    0.08129992    0.79659989    -0.08970000
opls_145-393    C    0.24039990    0.01029992    0.58579995    -0.12550000
opls_145-394    C    0.26589990    0.98229992    0.59050000    0.19260000
opls_145-395    C    0.22350000    0.02629992    0.61829995    -0.12550000
opls_507-396    C    0.08039990    0.22060011    0.87279995    0.18860000
opls_507-397    C    0.03080005    0.17419994    0.87200000    0.18140000
opls_716-398    C    0.01889990    0.13860011    0.87170005    -0.13770000
opls_716-399    C    0.11719995    0.23060011    0.87329995    -0.12660000
opls_700-400    C    0.06830005    0.18439989    0.87250000    -0.13360000
opls_700-401    C    0.09650000    0.15539989    0.87270005    0.06650000
opls_145-402    C    0.14900000    0.10019994    0.87320005    -0.07710000
opls_700-403    C    0.67189990    0.56309997    0.22950000    0.08840000
opls_142-404    C    0.79700000    0.43470008    0.05379995    0.03180000
opls_700-405    C    0.64769995    0.59590003    0.29979995    0.09340000
opls_700-406    C    0.63500000    0.61249986    0.33720005    0.06790000
opls_145-407    C    0.60880005    0.64060011    0.33740011    -0.07440000
opls_145-408    C    0.68169995    0.55439989    0.48500000    -0.10080000
opls_145-409    C    0.62419995    0.59370008    0.26700000    -0.08680000
opls_145-410    C    0.63639990    0.57790003    0.23209989    -0.09030000
opls_145-411    C    0.66489990    0.56619994    0.45070005    -0.11070000
opls_145-412    C    0.75930005    0.48770008    0.16100000    -0.12520000
opls_145-413    C    0.73260010    0.51460011    0.15629995    0.19250000
opls_145-414    C    0.77580005    0.47139989    0.12850000    -0.12420000
opls_700-415    C    0.68619995    0.57800000    0.51679995    0.06900000
opls_142-416    C    0.68480005    0.54690003    0.19240011    0.04200000
opls_700-417    C    0.65339990    0.60229992    0.44659989    0.06250000
opls_700-418    C    0.63739990    0.61529992    0.40890011    0.06760000
opls_145-419    C    0.61060010    0.64280006    0.40820005    -0.07450000
opls_145-420    C    0.69500000    0.56439989    0.26240011    -0.08970000
opls_145-421    C    0.65850000    0.62609997    0.47829995    -0.10080000
opls_145-422    C    0.67439990    0.61390003    0.51320005    -0.10080000
opls_145-423    C    0.68350000    0.58129992    0.29659989    -0.08970000
opls_145-424    C    0.74039990    0.51029992    0.08579995    -0.12550000
opls_145-425    C    0.76589990    0.48229992    0.09050000    0.19250000
opls_145-426    C    0.72350000    0.52629992    0.11829995    -0.12550000
opls_507-427    C    0.58039990    0.72060011    0.37279995    0.18860000
opls_507-428    C    0.53080005    0.67419994    0.37200000    0.18140000
opls_716-429    C    0.51889990    0.63860011    0.37170005    -0.13770000
opls_716-430    C    0.61719995    0.73060011    0.37329995    -0.12660000
opls_700-431    C    0.56830005    0.68439989    0.37250000    -0.13360000
opls_700-432    C    0.59650000    0.65539989    0.37270005    0.06650000
opls_145-433    C    0.64900000    0.60019994    0.37320005    -0.07710000
opls_700-434    C    0.82810010    0.43690003    0.72950000    0.08840000
opls_142-435    C    0.70300000    0.56529992    0.55379995    0.03180000
opls_700-436    C    0.85230005    0.40409997    0.79979995    0.09340000
opls_700-437    C    0.86500000    0.38749986    0.83720005    0.06790000
opls_145-438    C    0.89119995    0.35939989    0.83740011    -0.07440000
opls_145-439    C    0.81830005    0.44560011    0.98500000    -0.10080000
opls_145-440    C    0.87580005    0.40629992    0.76700000    -0.08680000
opls_145-441    C    0.86360010    0.42209997    0.73209989    -0.09030000
opls_145-442    C    0.83510010    0.43380006    0.95070005    -0.11070000
opls_145-443    C    0.74069995    0.51229992    0.66100000    -0.12520000
opls_145-444    C    0.76739990    0.48539989    0.65629995    0.19260000
opls_145-445    C    0.72419995    0.52860011    0.62850000    -0.12420000
opls_700-446    C    0.81380005    0.42200000    0.01679995    0.06900000
opls_142-447    C    0.81519995    0.45309997    0.69240011    0.04200000
opls_700-448    C    0.84660010    0.39770008    0.94659989    0.06250000
opls_700-449    C    0.86260010    0.38470008    0.90890011    0.06760000
opls_145-450    C    0.88939990    0.35719994    0.90820005    -0.07450000
opls_145-451    C    0.80500000    0.43560011    0.76240011    -0.08960000
opls_145-452    C    0.84150000    0.37390003    0.97829995    -0.10080000
opls_145-453    C    0.82560010    0.38609997    0.01320005    -0.10080000
opls_145-454    C    0.81650000    0.41870008    0.79659989    -0.08970000
opls_145-455    C    0.75960010    0.48970008    0.58579995    -0.12550000
opls_145-456    C    0.73410010    0.51770008    0.59050000    0.19250000
opls_145-457    C    0.77650000    0.47370008    0.61829995    -0.12550000
opls_507-458    C    0.91960010    0.27939989    0.87279995    0.18860000
opls_507-459    C    0.96919995    0.32580006    0.87200000    0.18140000
opls_716-460    C    0.98110010    0.36139989    0.87170005    -0.13770000
opls_716-461    C    0.88280005    0.26939989    0.87329995    -0.12650000
opls_700-462    C    0.93169995    0.31560011    0.87250000    -0.13360000
opls_700-463    C    0.90350000    0.34460011    0.87270005    0.06650000
opls_145-464    C    0.85100000    0.39980006    0.87320005    -0.07710000
opls_700-465    C    0.32810010    0.93690003    0.22950000    0.08850000
opls_142-466    C    0.20300000    0.06529992    0.05379995    0.03180000
opls_700-467    C    0.35230005    0.90409997    0.29979995    0.09340000
opls_700-468    C    0.36500000    0.88750014    0.33720005    0.06790000
opls_145-469    C    0.39119995    0.85939989    0.33740011    -0.07440000
opls_145-470    C    0.31830005    0.94560011    0.48500000    -0.10080000
opls_145-471    C    0.37580005    0.90629992    0.26700000    -0.08680000
opls_145-472    C    0.36360010    0.92209997    0.23209989    -0.09030000
opls_145-473    C    0.33510010    0.93380006    0.45070005    -0.11070000
opls_145-474    C    0.24069995    0.01229992    0.16100000    -0.12520000
opls_145-475    C    0.26739990    0.98539989    0.15629995    0.19250000
opls_145-476    C    0.22419995    0.02860011    0.12850000    -0.12420000
opls_700-477    C    0.31380005    0.92200000    0.51679995    0.06900000
opls_142-478    C    0.31519995    0.95309997    0.19240011    0.04200000
opls_700-479    C    0.34660010    0.89770008    0.44659989    0.06250000
opls_700-480    C    0.36260010    0.88470008    0.40890011    0.06760000
opls_145-481    C    0.38939990    0.85719994    0.40820005    -0.07450000
opls_145-482    C    0.30500000    0.93560011    0.26240011    -0.08970000
opls_145-483    C    0.34150000    0.87390003    0.47829995    -0.10080000
opls_145-484    C    0.32560010    0.88609997    0.51320005    -0.10070000
opls_145-485    C    0.31650000    0.91870008    0.29659989    -0.08970000
opls_145-486    C    0.25960010    0.98970008    0.08579995    -0.12550000
opls_145-487    C    0.23410010    0.01770008    0.09050000    0.19250000
opls_145-488    C    0.27650000    0.97370008    0.11829995    -0.12550000
opls_507-489    C    0.41960010    0.77939989    0.37279995    0.18860000
opls_507-490    C    0.46919995    0.82580006    0.37200000    0.18140000
opls_716-491    C    0.48110010    0.86139989    0.37170005    -0.13770000
opls_716-492    C    0.38280005    0.76939989    0.37329995    -0.12660000
opls_700-493    C    0.43169995    0.81560011    0.37250000    -0.13360000
opls_700-494    C    0.40350000    0.84460011    0.37270005    0.06650000
opls_145-495    C    0.35100000    0.89980006    0.37320005    -0.07710000
opls_750-496    N    0.21650000    0.46950014    0.69059989    -0.26180000
opls_750-497    N    0.28230005    0.53339989    0.55620005    -0.24230000
opls_750-498    N    0.71650000    0.96950014    0.19059989    -0.26180000
opls_750-499    N    0.78230005    0.03339989    0.05620005    -0.24230000
opls_750-500    N    0.78350000    0.03050014    0.69059989    -0.26180000
opls_750-501    N    0.71769995    0.96660011    0.55620005    -0.24230000
opls_750-502    N    0.28350000    0.53050014    0.19059989    -0.26170000
opls_750-503    N    0.21769995    0.46660011    0.05620005    -0.24230000
opls_750-504    N    0.78350000    0.96950014    0.30940011    -0.26180000
opls_750-505    N    0.71769995    0.03339989    0.44379995    -0.24230000
opls_750-506    N    0.28350000    0.46950014    0.80940011    -0.26180000
opls_750-507    N    0.21769995    0.53339989    0.94379995    -0.24230000
opls_750-508    N    0.21650000    0.53050014    0.30940011    -0.26180000
opls_750-509    N    0.28230005    0.46660011    0.44379995    -0.24230000
opls_750-510    N    0.71650000    0.03050014    0.80940011    -0.26180000
opls_750-511    N    0.78230005    0.96660011    0.94379995    -0.24230000
opls_750-512    N    0.78350000    0.53050014    0.30940011    -0.26180000
opls_750-513    N    0.71769995    0.46660011    0.44379995    -0.24230000
opls_750-514    N    0.28350000    0.03050014    0.80940011    -0.26180000
opls_750-515    N    0.21769995    0.96660011    0.94379995    -0.24220000
opls_750-516    N    0.21650000    0.96950014    0.30940011    -0.26180000
opls_750-517    N    0.28230005    0.03339989    0.44379995    -0.24220000
opls_750-518    N    0.71650000    0.46950014    0.80940011    -0.26180000
opls_750-519    N    0.78230005    0.53339989    0.94379995    -0.24230000
opls_750-520    N    0.21650000    0.03050014    0.69059989    -0.26180000
opls_750-521    N    0.28230005    0.96660011    0.55620005    -0.24230000
opls_750-522    N    0.71650000    0.53050014    0.19059989    -0.26180000
opls_750-523    N    0.78230005    0.46660011    0.05620005    -0.24230000
opls_750-524    N    0.78350000    0.46950014    0.69059989    -0.26180000
opls_750-525    N    0.71769995    0.53339989    0.55620005    -0.24230000
opls_750-526    N    0.28350000    0.96950014    0.19059989    -0.26180000
opls_750-527    N    0.21769995    0.03339989    0.05620005    -0.24230000
opls_542-528    N    0.05810010    0.25000000    0.87250000    -0.41160000
opls_542-529    N    0.55810010    0.75000000    0.37250000    -0.41160000
opls_542-530    N    0.94189990    0.25000000    0.87250000    -0.41160000
opls_542-531    N    0.44189990    0.75000000    0.37250000    -0.41160000
opls_542-532    N    0.94189990    0.75000000    0.12750000    -0.41160000
opls_542-533    N    0.44189990    0.25000000    0.62750000    -0.41160000
opls_542-534    N    0.05810010    0.75000000    0.12750000    -0.41160000
opls_542-535    N    0.55810010    0.25000000    0.62750000    -0.41160000
opls_542-536    N    0.00000000    0.30160011    0.87220005    -0.33110000
opls_542-537    N    0.50000000    0.80160011    0.37220005    -0.33120000
opls_542-538    N    0.00000000    0.19839989    0.87220005    -0.33120000
opls_542-539    N    0.50000000    0.69839989    0.37220005    -0.33120000
opls_542-540    N    0.00000000    0.80160011    0.12779995    -0.33120000
opls_542-541    N    0.50000000    0.30160011    0.62779995    -0.33120000
opls_542-542    N    0.00000000    0.69839989    0.12779995    -0.33120000
opls_542-543    N    0.50000000    0.19839989    0.62779995    -0.33120000
opls_144-544    H    0.29639990    0.58360011    0.57850000    0.02840000
opls_146-545    H    0.09810010    0.34860011    0.81029995    0.03920000
opls_146-546    H    0.19089990    0.47309997    0.98659989    0.24640000
opls_146-547    H    0.09619995    0.39629992    0.76829995    0.03920000
opls_146-548    H    0.11789990    0.42309997    0.70729995    0.03800000
opls_146-549    H    0.16080005    0.45329992    0.92759989    0.04440000
opls_146-550    H    0.26730005    0.52090003    0.69000000    0.03790000
opls_146-551    H    0.29650000    0.54919994    0.63320005    0.08910000
opls_144-552    H    0.16700000    0.45160011    0.66700000    0.02020000
opls_146-553    H    0.10030005    0.34580006    0.93520005    0.03920000
opls_146-554    H    0.22210010    0.44750014    0.76179995    0.03930000
opls_146-555    H    0.15089990    0.34570008    0.97609989    0.24630000
opls_146-556    H    0.17789990    0.36739989    0.03720005    0.04480000
opls_146-557    H    0.20300000    0.41700000    0.82050000    0.03800000
opls_146-558    H    0.23330005    0.48029992    0.55679995    0.03790000
opls_146-559    H    0.20410010    0.45190003    0.61359989    0.11890000
opls_547-560    H    0.03589990    0.38539989    0.87159989    0.10670000
opls_547-561    H    0.14130005    0.28680006    0.87350000    0.04270000
opls_146-562    H    0.16919995    0.42119994    0.87350000    0.12850000
opls_144-563    H    0.79639990    0.08360011    0.07850000    0.02840000
opls_146-564    H    0.59810010    0.84860011    0.31029995    0.03920000
opls_146-565    H    0.69089990    0.97309997    0.48659989    0.24640000
opls_146-566    H    0.59619995    0.89629992    0.26829995    0.03920000
opls_146-567    H    0.61789990    0.92309997    0.20729995    0.03800000
opls_146-568    H    0.66080005    0.95329992    0.42759989    0.04440000
opls_146-569    H    0.76730005    0.02090003    0.19000000    0.03790000
opls_146-570    H    0.79650000    0.04919994    0.13320005    0.08910000
opls_144-571    H    0.66700000    0.95160011    0.16700000    0.02020000
opls_146-572    H    0.60030005    0.84580006    0.43520005    0.03920000
opls_146-573    H    0.72210010    0.94749986    0.26179995    0.03930000
opls_146-574    H    0.65089990    0.84570008    0.47609989    0.24630000
opls_146-575    H    0.67789990    0.86739989    0.53720005    0.04480000
opls_146-576    H    0.70300000    0.91700000    0.32050000    0.03800000
opls_146-577    H    0.73330005    0.98029992    0.05679995    0.03790000
opls_146-578    H    0.70410010    0.95190003    0.11359989    0.11890000
opls_547-579    H    0.53589990    0.88539989    0.37159989    0.10670000
opls_547-580    H    0.64130005    0.78680006    0.37350000    0.04270000
opls_146-581    H    0.66919995    0.92119994    0.37350000    0.12860000
opls_144-582    H    0.70360010    0.91639989    0.57850000    0.02840000
opls_146-583    H    0.90189990    0.15139989    0.81029995    0.03920000
opls_146-584    H    0.80910010    0.02690003    0.98659989    0.24650000
opls_146-585    H    0.90380005    0.10370008    0.76829995    0.03920000
opls_146-586    H    0.88210010    0.07690003    0.70729995    0.03800000
opls_146-587    H    0.83919995    0.04670008    0.92759989    0.04440000
opls_146-588    H    0.73269995    0.97909997    0.69000000    0.03790000
opls_146-589    H    0.70350000    0.95080006    0.63320005    0.08920000
opls_144-590    H    0.83300000    0.04839989    0.66700000    0.02020000
opls_146-591    H    0.89969995    0.15419994    0.93520005    0.03920000
opls_146-592    H    0.77789990    0.05250014    0.76179995    0.03930000
opls_146-593    H    0.84910010    0.15429992    0.97609989    0.24630000
opls_146-594    H    0.82210010    0.13260011    0.03720005    0.04480000
opls_146-595    H    0.79700000    0.08300000    0.82050000    0.03800000
opls_146-596    H    0.76669995    0.01970008    0.55679995    0.03790000
opls_146-597    H    0.79589990    0.04809997    0.61359989    0.11890000
opls_547-598    H    0.96410010    0.11460011    0.87159989    0.10670000
opls_547-599    H    0.85869995    0.21319994    0.87350000    0.04270000
opls_146-600    H    0.83080005    0.07880006    0.87350000    0.12850000
opls_144-601    H    0.20360010    0.41639989    0.07850000    0.02840000
opls_146-602    H    0.40189990    0.65139989    0.31029995    0.03920000
opls_146-603    H    0.30910010    0.52690003    0.48659989    0.24650000
opls_146-604    H    0.40380005    0.60370008    0.26829995    0.03920000
opls_146-605    H    0.38210010    0.57690003    0.20729995    0.03800000
opls_146-606    H    0.33919995    0.54670008    0.42759989    0.04440000
opls_146-607    H    0.23269995    0.47909997    0.19000000    0.03790000
opls_146-608    H    0.20350000    0.45080006    0.13320005    0.08910000
opls_144-609    H    0.33300000    0.54839989    0.16700000    0.02020000
opls_146-610    H    0.39969995    0.65419994    0.43520005    0.03920000
opls_146-611    H    0.27789990    0.55250014    0.26179995    0.03930000
opls_146-612    H    0.34910010    0.65429992    0.47609989    0.24640000
opls_146-613    H    0.32210010    0.63260011    0.53720005    0.04480000
opls_146-614    H    0.29700000    0.58300000    0.32050000    0.03800000
opls_146-615    H    0.26669995    0.51970008    0.05679995    0.03790000
opls_146-616    H    0.29589990    0.54809997    0.11359989    0.11890000
opls_547-617    H    0.46410010    0.61460011    0.37159989    0.10670000
opls_547-618    H    0.35869995    0.71319994    0.37350000    0.04270000
opls_146-619    H    0.33080005    0.57880006    0.37350000    0.12850000
opls_144-620    H    0.70360010    0.08360011    0.42150000    0.02840000
opls_146-621    H    0.90189990    0.84860011    0.18970005    0.03920000
opls_146-622    H    0.80910010    0.97309997    0.01340011    0.24640000
opls_146-623    H    0.90380005    0.89629992    0.23170005    0.03920000
opls_146-624    H    0.88210010    0.92309997    0.29270005    0.03800000
opls_146-625    H    0.83919995    0.95329992    0.07240011    0.04440000
opls_146-626    H    0.73269995    0.02090003    0.31000000    0.03790000
opls_146-627    H    0.70350000    0.04919994    0.36679995    0.08910000
opls_144-628    H    0.83300000    0.95160011    0.33300000    0.02020000
opls_146-629    H    0.89969995    0.84580006    0.06479995    0.03920000
opls_146-630    H    0.77789990    0.94749986    0.23820005    0.03930000
opls_146-631    H    0.84910010    0.84570008    0.02390011    0.24630000
opls_146-632    H    0.82210010    0.86739989    0.96279995    0.04480000
opls_146-633    H    0.79700000    0.91700000    0.17950000    0.03800000
opls_146-634    H    0.76669995    0.98029992    0.44320005    0.03790000
opls_146-635    H    0.79589990    0.95190003    0.38640011    0.11890000
opls_547-636    H    0.96410010    0.88539989    0.12840011    0.10670000
opls_547-637    H    0.85869995    0.78680006    0.12650000    0.04270000
opls_146-638    H    0.83080005    0.92119994    0.12650000    0.12850000
opls_144-639    H    0.20360010    0.58360011    0.92150000    0.02840000
opls_146-640    H    0.40189990    0.34860011    0.68970005    0.03920000
opls_146-641    H    0.30910010    0.47309997    0.51340011    0.24640000
opls_146-642    H    0.40380005    0.39629992    0.73170005    0.03920000
opls_146-643    H    0.38210010    0.42309997    0.79270005    0.03800000
opls_146-644    H    0.33919995    0.45329992    0.57240011    0.04440000
opls_146-645    H    0.23269995    0.52090003    0.81000000    0.03790000
opls_146-646    H    0.20350000    0.54919994    0.86679995    0.08910000
opls_144-647    H    0.33300000    0.45160011    0.83300000    0.02020000
opls_146-648    H    0.39969995    0.34580006    0.56479995    0.03920000
opls_146-649    H    0.27789990    0.44750014    0.73820005    0.03930000
opls_146-650    H    0.34910010    0.34570008    0.52390011    0.24640000
opls_146-651    H    0.32210010    0.36739989    0.46279995    0.04480000
opls_146-652    H    0.29700000    0.41700000    0.67950000    0.03800000
opls_146-653    H    0.26669995    0.48029992    0.94320005    0.03790000
opls_146-654    H    0.29589990    0.45190003    0.88640011    0.11890000
opls_547-655    H    0.46410010    0.38539989    0.62840011    0.10670000
opls_547-656    H    0.35869995    0.28680006    0.62650000    0.04270000
opls_146-657    H    0.33080005    0.42119994    0.62650000    0.12850000
opls_144-658    H    0.29639990    0.41639989    0.42150000    0.02840000
opls_146-659    H    0.09810010    0.65139989    0.18970005    0.03920000
opls_146-660    H    0.19089990    0.52690003    0.01340011    0.24640000
opls_146-661    H    0.09619995    0.60370008    0.23170005    0.03920000
opls_146-662    H    0.11789990    0.57690003    0.29270005    0.03800000
opls_146-663    H    0.16080005    0.54670008    0.07240011    0.04440000
opls_146-664    H    0.26730005    0.47909997    0.31000000    0.03790000
opls_146-665    H    0.29650000    0.45080006    0.36679995    0.08910000
opls_144-666    H    0.16700000    0.54839989    0.33300000    0.02020000
opls_146-667    H    0.10030005    0.65419994    0.06479995    0.03920000
opls_146-668    H    0.22210010    0.55250014    0.23820005    0.03930000
opls_146-669    H    0.15089990    0.65429992    0.02390011    0.24630000
opls_146-670    H    0.17789990    0.63260011    0.96279995    0.04480000
opls_146-671    H    0.20300000    0.58300000    0.17950000    0.03800000
opls_146-672    H    0.23330005    0.51970008    0.44320005    0.03790000
opls_146-673    H    0.20410010    0.54809997    0.38640011    0.11890000
opls_547-674    H    0.03589990    0.61460011    0.12840011    0.10670000
opls_547-675    H    0.14130005    0.71319994    0.12650000    0.04270000
opls_146-676    H    0.16919995    0.57880006    0.12650000    0.12850000
opls_144-677    H    0.79639990    0.91639989    0.92150000    0.02840000
opls_146-678    H    0.59810010    0.15139989    0.68970005    0.03920000
opls_146-679    H    0.69089990    0.02690003    0.51340011    0.24640000
opls_146-680    H    0.59619995    0.10370008    0.73170005    0.03920000
opls_146-681    H    0.61789990    0.07690003    0.79270005    0.03800000
opls_146-682    H    0.66080005    0.04670008    0.57240011    0.04440000
opls_146-683    H    0.76730005    0.97909997    0.81000000    0.03790000
opls_146-684    H    0.79650000    0.95080006    0.86679995    0.08910000
opls_144-685    H    0.66700000    0.04839989    0.83300000    0.02020000
opls_146-686    H    0.60030005    0.15419994    0.56479995    0.03920000
opls_146-687    H    0.72210010    0.05250014    0.73820005    0.03930000
opls_146-688    H    0.65089990    0.15429992    0.52390011    0.24630000
opls_146-689    H    0.67789990    0.13260011    0.46279995    0.04480000
opls_146-690    H    0.70300000    0.08300000    0.67950000    0.03800000
opls_146-691    H    0.73330005    0.01970008    0.94320005    0.03790000
opls_146-692    H    0.70410010    0.04809997    0.88640011    0.11890000
opls_547-693    H    0.53589990    0.11460011    0.62840011    0.10670000
opls_547-694    H    0.64130005    0.21319994    0.62650000    0.04270000
opls_146-695    H    0.66919995    0.07880006    0.62650000    0.12860000
opls_144-696    H    0.70360010    0.41639989    0.42150000    0.02840000
opls_146-697    H    0.90189990    0.65139989    0.18970005    0.03920000
opls_146-698    H    0.80910010    0.52690003    0.01340011    0.24640000
opls_146-699    H    0.90380005    0.60370008    0.23170005    0.03920000
opls_146-700    H    0.88210010    0.57690003    0.29270005    0.03800000
opls_146-701    H    0.83919995    0.54670008    0.07240011    0.04440000
opls_146-702    H    0.73269995    0.47909997    0.31000000    0.03790000
opls_146-703    H    0.70350000    0.45080006    0.36679995    0.08910000
opls_144-704    H    0.83300000    0.54839989    0.33300000    0.02020000
opls_146-705    H    0.89969995    0.65419994    0.06479995    0.03920000
opls_146-706    H    0.77789990    0.55250014    0.23820005    0.03930000
opls_146-707    H    0.84910010    0.65429992    0.02390011    0.24630000
opls_146-708    H    0.82210010    0.63260011    0.96279995    0.04480000
opls_146-709    H    0.79700000    0.58300000    0.17950000    0.03800000
opls_146-710    H    0.76669995    0.51970008    0.44320005    0.03790000
opls_146-711    H    0.79589990    0.54809997    0.38640011    0.11890000
opls_547-712    H    0.96410010    0.61460011    0.12840011    0.10670000
opls_547-713    H    0.85869995    0.71319994    0.12650000    0.04270000
opls_146-714    H    0.83080005    0.57880006    0.12650000    0.12850000
opls_144-715    H    0.20360010    0.91639989    0.92150000    0.02840000
opls_146-716    H    0.40189990    0.15139989    0.68970005    0.03920000
opls_146-717    H    0.30910010    0.02690003    0.51340011    0.24640000
opls_146-718    H    0.40380005    0.10370008    0.73170005    0.03920000
opls_146-719    H    0.38210010    0.07690003    0.79270005    0.03810000
opls_146-720    H    0.33919995    0.04670008    0.57240011    0.04440000
opls_146-721    H    0.23269995    0.97909997    0.81000000    0.03790000
opls_146-722    H    0.20350000    0.95080006    0.86679995    0.08910000
opls_144-723    H    0.33300000    0.04839989    0.83300000    0.02020000
opls_146-724    H    0.39969995    0.15419994    0.56479995    0.03920000
opls_146-725    H    0.27789990    0.05250014    0.73820005    0.03930000
opls_146-726    H    0.34910010    0.15429992    0.52390011    0.24630000
opls_146-727    H    0.32210010    0.13260011    0.46279995    0.04480000
opls_146-728    H    0.29700000    0.08300000    0.67950000    0.03800000
opls_146-729    H    0.26669995    0.01970008    0.94320005    0.03790000
opls_146-730    H    0.29589990    0.04809997    0.88640011    0.11890000
opls_547-731    H    0.46410010    0.11460011    0.62840011    0.10670000
opls_547-732    H    0.35869995    0.21319994    0.62650000    0.04270000
opls_146-733    H    0.33080005    0.07880006    0.62650000    0.12850000
opls_144-734    H    0.29639990    0.08360011    0.42150000    0.02840000
opls_146-735    H    0.09810010    0.84860011    0.18970005    0.03920000
opls_146-736    H    0.19089990    0.97309997    0.01340011    0.24640000
opls_146-737    H    0.09619995    0.89629992    0.23170005    0.03920000
opls_146-738    H    0.11789990    0.92309997    0.29270005    0.03800000
opls_146-739    H    0.16080005    0.95329992    0.07240011    0.04440000
opls_146-740    H    0.26730005    0.02090003    0.31000000    0.03790000
opls_146-741    H    0.29650000    0.04919994    0.36679995    0.08910000
opls_144-742    H    0.16700000    0.95160011    0.33300000    0.02020000
opls_146-743    H    0.10030005    0.84580006    0.06479995    0.03920000
opls_146-744    H    0.22210010    0.94749986    0.23820005    0.03930000
opls_146-745    H    0.15089990    0.84570008    0.02390011    0.24630000
opls_146-746    H    0.17789990    0.86739989    0.96279995    0.04480000
opls_146-747    H    0.20300000    0.91700000    0.17950000    0.03800000
opls_146-748    H    0.23330005    0.98029992    0.44320005    0.03790000
opls_146-749    H    0.20410010    0.95190003    0.38640011    0.11890000
opls_547-750    H    0.03589990    0.88539989    0.12840011    0.10670000
opls_547-751    H    0.14130005    0.78680006    0.12650000    0.04270000
opls_146-752    H    0.16919995    0.92119994    0.12650000    0.12850000
opls_144-753    H    0.79639990    0.58360011    0.92150000    0.02840000
opls_146-754    H    0.59810010    0.34860011    0.68970005    0.03920000
opls_146-755    H    0.69089990    0.47309997    0.51340011    0.24640000
opls_146-756    H    0.59619995    0.39629992    0.73170005    0.03920000
opls_146-757    H    0.61789990    0.42309997    0.79270005    0.03800000
opls_146-758    H    0.66080005    0.45329992    0.57240011    0.04440000
opls_146-759    H    0.76730005    0.52090003    0.81000000    0.03790000
opls_146-760    H    0.79650000    0.54919994    0.86679995    0.08920000
opls_144-761    H    0.66700000    0.45160011    0.83300000    0.02020000
opls_146-762    H    0.60030005    0.34580006    0.56479995    0.03920000
opls_146-763    H    0.72210010    0.44750014    0.73820005    0.03930000
opls_146-764    H    0.65089990    0.34570008    0.52390011    0.24630000
opls_146-765    H    0.67789990    0.36739989    0.46279995    0.04480000
opls_146-766    H    0.70300000    0.41700000    0.67950000    0.03800000
opls_146-767    H    0.73330005    0.48029992    0.94320005    0.03790000
opls_146-768    H    0.70410010    0.45190003    0.88640011    0.11890000
opls_547-769    H    0.53589990    0.38539989    0.62840011    0.10670000
opls_547-770    H    0.64130005    0.28680006    0.62650000    0.04270000
opls_146-771    H    0.66919995    0.42119994    0.62650000    0.12850000
opls_144-772    H    0.29639990    0.91639989    0.57850000    0.02840000
opls_146-773    H    0.09810010    0.15139989    0.81029995    0.03920000
opls_146-774    H    0.19089990    0.02690003    0.98659989    0.24640000
opls_146-775    H    0.09619995    0.10370008    0.76829995    0.03920000
opls_146-776    H    0.11789990    0.07690003    0.70729995    0.03800000
opls_146-777    H    0.16080005    0.04670008    0.92759989    0.04440000
opls_146-778    H    0.26730005    0.97909997    0.69000000    0.03790000
opls_146-779    H    0.29650000    0.95080006    0.63320005    0.08910000
opls_144-780    H    0.16700000    0.04839989    0.66700000    0.02020000
opls_146-781    H    0.10030005    0.15419994    0.93520005    0.03920000
opls_146-782    H    0.22210010    0.05250014    0.76179995    0.03930000
opls_146-783    H    0.15089990    0.15429992    0.97609989    0.24640000
opls_146-784    H    0.17789990    0.13260011    0.03720005    0.04480000
opls_146-785    H    0.20300000    0.08300000    0.82050000    0.03800000
opls_146-786    H    0.23330005    0.01970008    0.55679995    0.03790000
opls_146-787    H    0.20410010    0.04809997    0.61359989    0.11890000
opls_547-788    H    0.03589990    0.11460011    0.87159989    0.10670000
opls_547-789    H    0.14130005    0.21319994    0.87350000    0.04270000
opls_146-790    H    0.16919995    0.07880006    0.87350000    0.12850000
opls_144-791    H    0.79639990    0.41639989    0.07850000    0.02840000
opls_146-792    H    0.59810010    0.65139989    0.31029995    0.03920000
opls_146-793    H    0.69089990    0.52690003    0.48659989    0.24640000
opls_146-794    H    0.59619995    0.60370008    0.26829995    0.03920000
opls_146-795    H    0.61789990    0.57690003    0.20729995    0.03800000
opls_146-796    H    0.66080005    0.54670008    0.42759989    0.04440000
opls_146-797    H    0.76730005    0.47909997    0.19000000    0.03790000
opls_146-798    H    0.79650000    0.45080006    0.13320005    0.08910000
opls_144-799    H    0.66700000    0.54839989    0.16700000    0.02020000
opls_146-800    H    0.60030005    0.65419994    0.43520005    0.03920000
opls_146-801    H    0.72210010    0.55250014    0.26179995    0.03930000
opls_146-802    H    0.65089990    0.65429992    0.47609989    0.24630000
opls_146-803    H    0.67789990    0.63260011    0.53720005    0.04480000
opls_146-804    H    0.70300000    0.58300000    0.32050000    0.03800000
opls_146-805    H    0.73330005    0.51970008    0.05679995    0.03790000
opls_146-806    H    0.70410010    0.54809997    0.11359989    0.11900000
opls_547-807    H    0.53589990    0.61460011    0.37159989    0.10670000
opls_547-808    H    0.64130005    0.71319994    0.37350000    0.04270000
opls_146-809    H    0.66919995    0.57880006    0.37350000    0.12850000
opls_144-810    H    0.70360010    0.58360011    0.57850000    0.02840000
opls_146-811    H    0.90189990    0.34860011    0.81029995    0.03920000
opls_146-812    H    0.80910010    0.47309997    0.98659989    0.24640000
opls_146-813    H    0.90380005    0.39629992    0.76829995    0.03920000
opls_146-814    H    0.88210010    0.42309997    0.70729995    0.03800000
opls_146-815    H    0.83919995    0.45329992    0.92759989    0.04440000
opls_146-816    H    0.73269995    0.52090003    0.69000000    0.03790000
opls_146-817    H    0.70350000    0.54919994    0.63320005    0.08910000
opls_144-818    H    0.83300000    0.45160011    0.66700000    0.02020000
opls_146-819    H    0.89969995    0.34580006    0.93520005    0.03920000
opls_146-820    H    0.77789990    0.44750014    0.76179995    0.03930000
opls_146-821    H    0.84910010    0.34570008    0.97609989    0.24630000
opls_146-822    H    0.82210010    0.36739989    0.03720005    0.04480000
opls_146-823    H    0.79700000    0.41700000    0.82050000    0.03810000
opls_146-824    H    0.76669995    0.48029992    0.55679995    0.03790000
opls_146-825    H    0.79589990    0.45190003    0.61359989    0.11890000
opls_547-826    H    0.96410010    0.38539989    0.87159989    0.10670000
opls_547-827    H    0.85869995    0.28680006    0.87350000    0.04270000
opls_146-828    H    0.83080005    0.42119994    0.87350000    0.12850000
opls_144-829    H    0.20360010    0.08360011    0.07850000    0.02840000
opls_146-830    H    0.40189990    0.84860011    0.31029995    0.03920000
opls_146-831    H    0.30910010    0.97309997    0.48659989    0.24640000
opls_146-832    H    0.40380005    0.89629992    0.26829995    0.03920000
opls_146-833    H    0.38210010    0.92309997    0.20729995    0.03800000
opls_146-834    H    0.33919995    0.95329992    0.42759989    0.04440000
opls_146-835    H    0.23269995    0.02090003    0.19000000    0.03790000
opls_146-836    H    0.20350000    0.04919994    0.13320005    0.08910000
opls_144-837    H    0.33300000    0.95160011    0.16700000    0.02020000
opls_146-838    H    0.39969995    0.84580006    0.43520005    0.03920000
opls_146-839    H    0.27789990    0.94749986    0.26179995    0.03930000
opls_146-840    H    0.34910010    0.84570008    0.47609989    0.24630000
opls_146-841    H    0.32210010    0.86739989    0.53720005    0.04480000
opls_146-842    H    0.29700000    0.91700000    0.32050000    0.03800000
opls_146-843    H    0.26669995    0.98029992    0.05679995    0.03790000
opls_146-844    H    0.29589990    0.95190003    0.11359989    0.11890000
opls_547-845    H    0.46410010    0.88539989    0.37159989    0.10670000
opls_547-846    H    0.35869995    0.78680006    0.37350000    0.04270000
opls_146-847    H    0.33080005    0.92119994    0.37350000    0.12850000
