#======================================================================
# Crystal Data Generated By AuToFF
#----------------------------------------------------------------------

data_AuToFF_phase_1

_cell_length_a                         39.3857
_cell_length_b                         39.3857
_cell_length_c                         5.4987
_cell_angle_alpha                      90.00
_cell_angle_beta                       90.00
_cell_angle_gamma                      90.00
_symmetry_space_group_name_H-M_alt     'P 1'
_symmetry_space_group_IT_number        1

loop_
_space_group_symop_operation_xyz
   'x, y, z'

loop_
   _atom_site_label
   _atom_site_type_symbol
   _atom_site_fract_x
   _atom_site_fract_y
   _atom_site_fract_z
   _atom_site_charge
opls_145-0    C    0.54254996    0.52587005    0.81830069    -0.14170000
opls_145-1    C    0.57288991    0.52735003    0.95827014    -0.14370000
opls_700-2    C    0.59515002    0.49979993    0.97802026    0.05910000
opls_145-3    C    0.58765009    0.47261011    0.81961009    -0.14860000
opls_145-4    C    0.55823992    0.47197993    0.66815975    -0.14580000
opls_700-5    C    0.53360991    0.49841998    0.66829069    0.06630000
opls_145-6    C    0.63297999    0.46704997    0.28800989    -0.10630000
opls_700-7    C    0.65794997    0.46543009    0.47782931    0.00940000
opls_145-8    C    0.66774007    0.49585992    0.60405914    0.04810000
opls_700-9    C    0.65473002    0.52763008    0.51239929    0.00940000
opls_145-10    C    0.63528997    0.52781009    0.29157983    -0.10670000
opls_700-11    C    0.62221009    0.49808001    0.18297961    0.05860000
opls_142-12    C    0.70940011    0.51374991    0.93274956    0.07490000
opls_145-13    C    0.74353001    0.53297009    0.29845964    -0.19210000
opls_145-14    C    0.73668997    0.47308998    0.23928929    -0.13700000
opls_700-15    C    0.72935989    0.50617001    0.16204921    0.04680000
opls_515-16    C    0.67440010    0.43124992    0.55201957    0.08980000
opls_515-17    C    0.65714003    0.56144997    0.65295979    0.08160000
opls_135-18    C    0.68372988    0.58545995    0.54040046    -0.44820000
opls_135-19    C    0.62297001    0.58027990    0.66276029    -0.44840000
opls_135-20    C    0.67720010    0.40419010    0.35045011    -0.44840000
opls_135-21    C    0.65753002    0.41519003    0.77325913    -0.45010000
opls_701-22    C    0.50000000    0.50000000    0.50000000    0.02080000
opls_145-23    C    0.95745004    0.97412995    0.31830069    -0.14170000
opls_145-24    C    0.92711009    0.97264997    0.45827014    -0.14370000
opls_700-25    C    0.90484998    0.00020007    0.47802026    0.05910000
opls_145-26    C    0.91234991    0.02738989    0.31961009    -0.14860000
opls_145-27    C    0.94176008    0.02802007    0.16815975    -0.14580000
opls_700-28    C    0.96639009    0.00158002    0.16829069    0.06630000
opls_145-29    C    0.86702001    0.03295003    0.78800989    -0.10630000
opls_700-30    C    0.84205003    0.03456991    0.97782931    0.00940000
opls_145-31    C    0.83225993    0.00414008    0.10405914    0.04810000
opls_700-32    C    0.84526998    0.97236992    0.01239929    0.00940000
opls_145-33    C    0.86471003    0.97218991    0.79157983    -0.10670000
opls_700-34    C    0.87778991    0.00191999    0.68297961    0.05860000
opls_142-35    C    0.79059989    0.98625009    0.43274956    0.07490000
opls_145-36    C    0.75646999    0.96702991    0.79845964    -0.19210000
opls_145-37    C    0.76331003    0.02691002    0.73928929    -0.13700000
opls_700-38    C    0.77064011    0.99382999    0.66204921    0.04680000
opls_515-39    C    0.82559990    0.06875008    0.05201957    0.08980000
opls_515-40    C    0.84285997    0.93855003    0.15295979    0.08160000
opls_135-41    C    0.81627012    0.91454005    0.04040046    -0.44840000
opls_135-42    C    0.87702999    0.91972010    0.16276029    -0.44840000
opls_135-43    C    0.82279990    0.09580990    0.85045011    -0.44830000
opls_135-44    C    0.84246998    0.08480997    0.27325913    -0.45010000
opls_701-45    C    0.00000000    0.00000000    0.00000000    0.02080000
opls_145-46    C    0.47412995    0.04254996    0.06829978    -0.14170000
opls_145-47    C    0.47264997    0.07288991    0.20826923    -0.14360000
opls_700-48    C    0.50020007    0.09515002    0.22801935    0.05910000
opls_145-49    C    0.52738989    0.08765009    0.06960918    -0.14860000
opls_145-50    C    0.52802007    0.05823992    0.91816066    -0.14580000
opls_700-51    C    0.50158002    0.03360991    0.91828978    0.06630000
opls_145-52    C    0.53295003    0.13297999    0.53801080    -0.10630000
opls_700-53    C    0.53456991    0.15794997    0.72783021    0.00940000
opls_145-54    C    0.50414008    0.16774007    0.85406005    0.04810000
opls_700-55    C    0.47236992    0.15473002    0.76240020    0.00940000
opls_145-56    C    0.47218991    0.13528997    0.54158074    -0.10670000
opls_700-57    C    0.50191999    0.12221009    0.43298052    0.05860000
opls_142-58    C    0.48625009    0.20940011    0.18275047    0.07490000
opls_145-59    C    0.46702991    0.24353001    0.54846055    -0.19210000
opls_145-60    C    0.52691002    0.23668997    0.48929020    -0.13700000
opls_700-61    C    0.49382999    0.22935989    0.41205012    0.04680000
opls_515-62    C    0.56875008    0.17440010    0.80202048    0.08980000
opls_515-63    C    0.43855003    0.15714003    0.90296070    0.08160000
opls_135-64    C    0.41454005    0.18372988    0.79039955    -0.44830000
opls_135-65    C    0.41972010    0.12297001    0.91275938    -0.44840000
opls_135-66    C    0.59580990    0.17720010    0.60044920    -0.44840000
opls_135-67    C    0.58480997    0.15753002    0.02326004    -0.45000000
opls_701-68    C    0.50000000    0.00000000    0.74999909    0.02080000
opls_145-69    C    0.02587005    0.45745004    0.56829978    -0.14170000
opls_145-70    C    0.02735003    0.42711009    0.70826923    -0.14370000
opls_700-71    C    0.99979993    0.40484998    0.72801935    0.05910000
opls_145-72    C    0.97261011    0.41234991    0.56960918    -0.14860000
opls_145-73    C    0.97197993    0.44176008    0.41816066    -0.14580000
opls_700-74    C    0.99841998    0.46639009    0.41828978    0.06630000
opls_145-75    C    0.96704997    0.36702001    0.03801080    -0.10620000
opls_700-76    C    0.96543009    0.34205003    0.22783021    0.00940000
opls_145-77    C    0.99585992    0.33225993    0.35406005    0.04810000
opls_700-78    C    0.02763008    0.34526998    0.26240020    0.00940000
opls_145-79    C    0.02781009    0.36471003    0.04158074    -0.10670000
opls_700-80    C    0.99808001    0.37778991    0.93298052    0.05860000
opls_142-81    C    0.01374991    0.29059989    0.68275047    0.07490000
opls_145-82    C    0.03297009    0.25646999    0.04846055    -0.19210000
opls_145-83    C    0.97308998    0.26331003    0.98929020    -0.13700000
opls_700-84    C    0.00617001    0.27064011    0.91205012    0.04680000
opls_515-85    C    0.93124992    0.32559990    0.30202048    0.08980000
opls_515-86    C    0.06144997    0.34285997    0.40296070    0.08170000
opls_135-87    C    0.08545995    0.31627012    0.29039955    -0.44840000
opls_135-88    C    0.08027990    0.37702999    0.41275938    -0.44840000
opls_135-89    C    0.90419010    0.32279990    0.10044920    -0.44830000
opls_135-90    C    0.91519003    0.34246998    0.52326004    -0.45010000
opls_701-91    C    0.00000000    0.50000000    0.25000091    0.02080000
opls_145-92    C    0.45745004    0.97412995    0.43170022    -0.14160000
opls_145-93    C    0.42711009    0.97264997    0.29173077    -0.14370000
opls_700-94    C    0.40484998    0.00020007    0.27198065    0.05910000
opls_145-95    C    0.41234991    0.02738989    0.43039082    -0.14860000
opls_145-96    C    0.44176008    0.02802007    0.58183934    -0.14580000
opls_700-97    C    0.46639009    0.00158002    0.58171022    0.06640000
opls_145-98    C    0.36702001    0.03295003    0.96198920    -0.10630000
opls_700-99    C    0.34205003    0.03456991    0.77216979    0.00940000
opls_145-100    C    0.33225993    0.00414008    0.64593995    0.04810000
opls_700-101    C    0.34526998    0.97236992    0.73759980    0.00940000
opls_145-102    C    0.36471003    0.97218991    0.95841926    -0.10670000
opls_700-103    C    0.37778991    0.00191999    0.06701948    0.05860000
opls_142-104    C    0.29059989    0.98625009    0.31724953    0.07490000
opls_145-105    C    0.25646999    0.96702991    0.95153945    -0.19210000
opls_145-106    C    0.26331003    0.02691002    0.01070980    -0.13700000
opls_700-107    C    0.27064011    0.99382999    0.08794988    0.04680000
opls_515-108    C    0.32559990    0.06875008    0.69797952    0.08980000
opls_515-109    C    0.34285997    0.93855003    0.59703930    0.08160000
opls_135-110    C    0.31627012    0.91454005    0.70960045    -0.44840000
opls_135-111    C    0.37702999    0.91972010    0.58724062    -0.44820000
opls_135-112    C    0.32279990    0.09580990    0.89955080    -0.44840000
opls_135-113    C    0.34246998    0.08480997    0.47673996    -0.45010000
opls_145-114    C    0.04254996    0.52587005    0.93170022    -0.14170000
opls_145-115    C    0.07288991    0.52735003    0.79173077    -0.14370000
opls_700-116    C    0.09515002    0.49979993    0.77198065    0.05910000
opls_145-117    C    0.08765009    0.47261011    0.93039082    -0.14860000
opls_145-118    C    0.05823992    0.47197993    0.08183934    -0.14580000
opls_700-119    C    0.03360991    0.49841998    0.08171022    0.06630000
opls_145-120    C    0.13297999    0.46704997    0.46198920    -0.10630000
opls_700-121    C    0.15794997    0.46543009    0.27216979    0.00940000
opls_145-122    C    0.16774007    0.49585992    0.14593995    0.04810000
opls_700-123    C    0.15473002    0.52763008    0.23759980    0.00940000
opls_145-124    C    0.13528997    0.52781009    0.45841926    -0.10670000
opls_700-125    C    0.12221009    0.49808001    0.56701948    0.05860000
opls_142-126    C    0.20940011    0.51374991    0.81724953    0.07490000
opls_145-127    C    0.24353001    0.53297009    0.45153945    -0.19210000
opls_145-128    C    0.23668997    0.47308998    0.51070980    -0.13700000
opls_700-129    C    0.22935989    0.50617001    0.58794988    0.04680000
opls_515-130    C    0.17440010    0.43124992    0.19797952    0.08980000
opls_515-131    C    0.15714003    0.56144997    0.09703930    0.08160000
opls_135-132    C    0.18372988    0.58545995    0.20960045    -0.44840000
opls_135-133    C    0.12297001    0.58027990    0.08724062    -0.44840000
opls_135-134    C    0.17720010    0.40419010    0.39955080    -0.44840000
opls_135-135    C    0.15753002    0.41519003    0.97673996    -0.45010000
opls_145-136    C    0.52587005    0.45745004    0.18169931    -0.14170000
opls_145-137    C    0.52735003    0.42711009    0.04172986    -0.14370000
opls_700-138    C    0.49979993    0.40484998    0.02197974    0.05910000
opls_145-139    C    0.47261011    0.41234991    0.18038991    -0.14850000
opls_145-140    C    0.47197993    0.44176008    0.33184025    -0.14570000
opls_700-141    C    0.49841998    0.46639009    0.33170931    0.06630000
opls_145-142    C    0.46704997    0.36702001    0.71199011    -0.10630000
opls_700-143    C    0.46543009    0.34205003    0.52217069    0.00940000
opls_145-144    C    0.49585992    0.33225993    0.39594086    0.04810000
opls_700-145    C    0.52763008    0.34526998    0.48760071    0.00940000
opls_145-146    C    0.52781009    0.36471003    0.70842017    -0.10670000
opls_700-147    C    0.49808001    0.37778991    0.81702039    0.05860000
opls_142-148    C    0.51374991    0.29059989    0.06725044    0.07490000
opls_145-149    C    0.53297009    0.25646999    0.70154036    -0.19210000
opls_145-150    C    0.47308998    0.26331003    0.76071071    -0.13700000
opls_700-151    C    0.50617001    0.27064011    0.83795079    0.04680000
opls_515-152    C    0.43124992    0.32559990    0.44798043    0.08980000
opls_515-153    C    0.56144997    0.34285997    0.34704021    0.08160000
opls_135-154    C    0.58545995    0.31627012    0.45959954    -0.44840000
opls_135-155    C    0.58027990    0.37702999    0.33723971    -0.44840000
opls_135-156    C    0.40419010    0.32279990    0.64954989    -0.44840000
opls_135-157    C    0.41519003    0.34246998    0.22674087    -0.45010000
opls_145-158    C    0.97412995    0.04254996    0.68169931    -0.14170000
opls_145-159    C    0.97264997    0.07288991    0.54172986    -0.14370000
opls_700-160    C    0.00020007    0.09515002    0.52197974    0.05910000
opls_145-161    C    0.02738989    0.08765009    0.68038991    -0.14860000
opls_145-162    C    0.02802007    0.05823992    0.83184025    -0.14570000
opls_700-163    C    0.00158002    0.03360991    0.83170931    0.06630000
opls_145-164    C    0.03295003    0.13297999    0.21199011    -0.10630000
opls_700-165    C    0.03456991    0.15794997    0.02217069    0.00940000
opls_145-166    C    0.00414008    0.16774007    0.89594086    0.04810000
opls_700-167    C    0.97236992    0.15473002    0.98760071    0.00940000
opls_145-168    C    0.97218991    0.13528997    0.20842017    -0.10670000
opls_700-169    C    0.00191999    0.12221009    0.31702039    0.05860000
opls_142-170    C    0.98625009    0.20940011    0.56725044    0.07490000
opls_145-171    C    0.96702991    0.24353001    0.20154036    -0.19210000
opls_145-172    C    0.02691002    0.23668997    0.26071071    -0.13700000
opls_700-173    C    0.99382999    0.22935989    0.33795079    0.04690000
opls_515-174    C    0.06875008    0.17440010    0.94798043    0.08980000
opls_515-175    C    0.93855003    0.15714003    0.84704021    0.08160000
opls_135-176    C    0.91454005    0.18372988    0.95959954    -0.44840000
opls_135-177    C    0.91972010    0.12297001    0.83723971    -0.44840000
opls_135-178    C    0.09580990    0.17720010    0.14954989    -0.44830000
opls_135-179    C    0.08480997    0.15753002    0.72674087    -0.45010000
opls_145-180    C    0.97412995    0.54254996    0.56829978    -0.14170000
opls_145-181    C    0.97264997    0.57288991    0.70826923    -0.14370000
opls_700-182    C    0.00020007    0.59515002    0.72801935    0.05910000
opls_145-183    C    0.02738989    0.58765009    0.56960918    -0.14860000
opls_145-184    C    0.02802007    0.55823992    0.41816066    -0.14580000
opls_700-185    C    0.00158002    0.53360991    0.41828978    0.06630000
opls_145-186    C    0.03295003    0.63297999    0.03801080    -0.10630000
opls_700-187    C    0.03456991    0.65794997    0.22783021    0.00940000
opls_145-188    C    0.00414008    0.66774007    0.35406005    0.04810000
opls_700-189    C    0.97236992    0.65473002    0.26240020    0.00940000
opls_145-190    C    0.97218991    0.63528997    0.04158074    -0.10670000
opls_700-191    C    0.00191999    0.62221009    0.93298052    0.05860000
opls_142-192    C    0.98625009    0.70940011    0.68275047    0.07490000
opls_145-193    C    0.96702991    0.74353001    0.04846055    -0.19210000
opls_145-194    C    0.02691002    0.73668997    0.98929020    -0.13700000
opls_700-195    C    0.99382999    0.72935989    0.91205012    0.04680000
opls_515-196    C    0.06875008    0.67440010    0.30202048    0.08980000
opls_515-197    C    0.93855003    0.65714003    0.40296070    0.08160000
opls_135-198    C    0.91454005    0.68372988    0.29039955    -0.44840000
opls_135-199    C    0.91972010    0.62297001    0.41275938    -0.44840000
opls_135-200    C    0.09580990    0.67720010    0.10044920    -0.44840000
opls_135-201    C    0.08480997    0.65753002    0.52326004    -0.45010000
opls_145-202    C    0.52587005    0.95745004    0.06829978    -0.14170000
opls_145-203    C    0.52735003    0.92711009    0.20826923    -0.14370000
opls_700-204    C    0.49979993    0.90484998    0.22801935    0.05910000
opls_145-205    C    0.47261011    0.91234991    0.06960918    -0.14860000
opls_145-206    C    0.47197993    0.94176008    0.91816066    -0.14580000
opls_700-207    C    0.49841998    0.96639009    0.91828978    0.06630000
opls_145-208    C    0.46704997    0.86702001    0.53801080    -0.10630000
opls_700-209    C    0.46543009    0.84205003    0.72783021    0.00940000
opls_145-210    C    0.49585992    0.83225993    0.85406005    0.04820000
opls_700-211    C    0.52763008    0.84526998    0.76240020    0.00940000
opls_145-212    C    0.52781009    0.86471003    0.54158074    -0.10670000
opls_700-213    C    0.49808001    0.87778991    0.43298052    0.05860000
opls_142-214    C    0.51374991    0.79059989    0.18275047    0.07490000
opls_145-215    C    0.53297009    0.75646999    0.54846055    -0.19210000
opls_145-216    C    0.47308998    0.76331003    0.48929020    -0.13700000
opls_700-217    C    0.50617001    0.77064011    0.41205012    0.04680000
opls_515-218    C    0.43124992    0.82559990    0.80202048    0.08980000
opls_515-219    C    0.56144997    0.84285997    0.90296070    0.08160000
opls_135-220    C    0.58545995    0.81627012    0.79039955    -0.44840000
opls_135-221    C    0.58027990    0.87702999    0.91275938    -0.44840000
opls_135-222    C    0.40419010    0.82279990    0.60044920    -0.44840000
opls_135-223    C    0.41519003    0.84246998    0.02326004    -0.45010000
opls_145-224    C    0.45745004    0.47412995    0.81830069    -0.14170000
opls_145-225    C    0.42711009    0.47264997    0.95827014    -0.14370000
opls_700-226    C    0.40484998    0.50020007    0.97802026    0.05910000
opls_145-227    C    0.41234991    0.52738989    0.81961009    -0.14860000
opls_145-228    C    0.44176008    0.52802007    0.66815975    -0.14580000
opls_700-229    C    0.46639009    0.50158002    0.66829069    0.06630000
opls_145-230    C    0.36702001    0.53295003    0.28800989    -0.10630000
opls_700-231    C    0.34205003    0.53456991    0.47782931    0.00940000
opls_145-232    C    0.33225993    0.50414008    0.60405914    0.04810000
opls_700-233    C    0.34526998    0.47236992    0.51239929    0.00940000
opls_145-234    C    0.36471003    0.47218991    0.29157983    -0.10670000
opls_700-235    C    0.37778991    0.50191999    0.18297961    0.05860000
opls_142-236    C    0.29059989    0.48625009    0.93274956    0.07490000
opls_145-237    C    0.25646999    0.46702991    0.29845964    -0.19210000
opls_145-238    C    0.26331003    0.52691002    0.23928929    -0.13700000
opls_700-239    C    0.27064011    0.49382999    0.16204921    0.04680000
opls_515-240    C    0.32559990    0.56875008    0.55201957    0.08980000
opls_515-241    C    0.34285997    0.43855003    0.65295979    0.08160000
opls_135-242    C    0.31627012    0.41454005    0.54040046    -0.44830000
opls_135-243    C    0.37702999    0.41972010    0.66276029    -0.44830000
opls_135-244    C    0.32279990    0.59580990    0.35045011    -0.44840000
opls_135-245    C    0.34246998    0.58480997    0.77325913    -0.45010000
opls_145-246    C    0.04254996    0.02587005    0.31830069    -0.14170000
opls_145-247    C    0.07288991    0.02735003    0.45827014    -0.14370000
opls_700-248    C    0.09515002    0.99979993    0.47802026    0.05910000
opls_145-249    C    0.08765009    0.97261011    0.31961009    -0.14860000
opls_145-250    C    0.05823992    0.97197993    0.16815975    -0.14580000
opls_700-251    C    0.03360991    0.99841998    0.16829069    0.06630000
opls_145-252    C    0.13297999    0.96704997    0.78800989    -0.10630000
opls_700-253    C    0.15794997    0.96543009    0.97782931    0.00940000
opls_145-254    C    0.16774007    0.99585992    0.10405914    0.04820000
opls_700-255    C    0.15473002    0.02763008    0.01239929    0.00940000
opls_145-256    C    0.13528997    0.02781009    0.79157983    -0.10670000
opls_700-257    C    0.12221009    0.99808001    0.68297961    0.05860000
opls_142-258    C    0.20940011    0.01374991    0.43274956    0.07490000
opls_145-259    C    0.24353001    0.03297009    0.79845964    -0.19210000
opls_145-260    C    0.23668997    0.97308998    0.73928929    -0.13700000
opls_700-261    C    0.22935989    0.00617001    0.66204921    0.04680000
opls_515-262    C    0.17440010    0.93124992    0.05201957    0.08980000
opls_515-263    C    0.15714003    0.06144997    0.15295979    0.08160000
opls_135-264    C    0.18372988    0.08545995    0.04040046    -0.44840000
opls_135-265    C    0.12297001    0.08027990    0.16276029    -0.44840000
opls_135-266    C    0.17720010    0.90419010    0.85045011    -0.44840000
opls_135-267    C    0.15753002    0.91519003    0.27325913    -0.45010000
opls_145-268    C    0.95745004    0.47412995    0.93170022    -0.14170000
opls_145-269    C    0.92711009    0.47264997    0.79173077    -0.14370000
opls_700-270    C    0.90484998    0.50020007    0.77198065    0.05910000
opls_145-271    C    0.91234991    0.52738989    0.93039082    -0.14860000
opls_145-272    C    0.94176008    0.52802007    0.08183934    -0.14570000
opls_700-273    C    0.96639009    0.50158002    0.08171022    0.06630000
opls_145-274    C    0.86702001    0.53295003    0.46198920    -0.10630000
opls_700-275    C    0.84205003    0.53456991    0.27216979    0.00940000
opls_145-276    C    0.83225993    0.50414008    0.14593995    0.04810000
opls_700-277    C    0.84526998    0.47236992    0.23759980    0.00940000
opls_145-278    C    0.86471003    0.47218991    0.45841926    -0.10670000
opls_700-279    C    0.87778991    0.50191999    0.56701948    0.05860000
opls_142-280    C    0.79059989    0.48625009    0.81724953    0.07490000
opls_145-281    C    0.75646999    0.46702991    0.45153945    -0.19210000
opls_145-282    C    0.76331003    0.52691002    0.51070980    -0.13700000
opls_700-283    C    0.77064011    0.49382999    0.58794988    0.04690000
opls_515-284    C    0.82559990    0.56875008    0.19797952    0.08980000
opls_515-285    C    0.84285997    0.43855003    0.09703930    0.08160000
opls_135-286    C    0.81627012    0.41454005    0.20960045    -0.44840000
opls_135-287    C    0.87702999    0.41972010    0.08724062    -0.44840000
opls_135-288    C    0.82279990    0.59580990    0.39955080    -0.44810000
opls_135-289    C    0.84246998    0.58480997    0.97673996    -0.45010000
opls_145-290    C    0.54254996    0.02587005    0.43170022    -0.14170000
opls_145-291    C    0.57288991    0.02735003    0.29173077    -0.14370000
opls_700-292    C    0.59515002    0.99979993    0.27198065    0.05910000
opls_145-293    C    0.58765009    0.97261011    0.43039082    -0.14860000
opls_145-294    C    0.55823992    0.97197993    0.58183934    -0.14580000
opls_700-295    C    0.53360991    0.99841998    0.58171022    0.06630000
opls_145-296    C    0.63297999    0.96704997    0.96198920    -0.10630000
opls_700-297    C    0.65794997    0.96543009    0.77216979    0.00940000
opls_145-298    C    0.66774007    0.99585992    0.64593995    0.04810000
opls_700-299    C    0.65473002    0.02763008    0.73759980    0.00940000
opls_145-300    C    0.63528997    0.02781009    0.95841926    -0.10670000
opls_700-301    C    0.62221009    0.99808001    0.06701948    0.05860000
opls_142-302    C    0.70940011    0.01374991    0.31724953    0.07490000
opls_145-303    C    0.74353001    0.03297009    0.95153945    -0.19210000
opls_145-304    C    0.73668997    0.97308998    0.01070980    -0.13690000
opls_700-305    C    0.72935989    0.00617001    0.08794988    0.04680000
opls_515-306    C    0.67440010    0.93124992    0.69797952    0.08980000
opls_515-307    C    0.65714003    0.06144997    0.59703930    0.08160000
opls_135-308    C    0.68372988    0.08545995    0.70960045    -0.44830000
opls_135-309    C    0.62297001    0.08027990    0.58724062    -0.44830000
opls_135-310    C    0.67720010    0.90419010    0.89955080    -0.44840000
opls_135-311    C    0.65753002    0.91519003    0.47673996    -0.45010000
opls_145-312    C    0.02587005    0.95745004    0.68169931    -0.14170000
opls_145-313    C    0.02735003    0.92711009    0.54172986    -0.14370000
opls_700-314    C    0.99979993    0.90484998    0.52197974    0.05910000
opls_145-315    C    0.97261011    0.91234991    0.68038991    -0.14860000
opls_145-316    C    0.97197993    0.94176008    0.83184025    -0.14580000
opls_700-317    C    0.99841998    0.96639009    0.83170931    0.06630000
opls_145-318    C    0.96704997    0.86702001    0.21199011    -0.10630000
opls_700-319    C    0.96543009    0.84205003    0.02217069    0.00940000
opls_145-320    C    0.99585992    0.83225993    0.89594086    0.04810000
opls_700-321    C    0.02763008    0.84526998    0.98760071    0.00940000
opls_145-322    C    0.02781009    0.86471003    0.20842017    -0.10670000
opls_700-323    C    0.99808001    0.87778991    0.31702039    0.05860000
opls_142-324    C    0.01374991    0.79059989    0.56725044    0.07490000
opls_145-325    C    0.03297009    0.75646999    0.20154036    -0.19210000
opls_145-326    C    0.97308998    0.76331003    0.26071071    -0.13700000
opls_700-327    C    0.00617001    0.77064011    0.33795079    0.04680000
opls_515-328    C    0.93124992    0.82559990    0.94798043    0.08980000
opls_515-329    C    0.06144997    0.84285997    0.84704021    0.08160000
opls_135-330    C    0.08545995    0.81627012    0.95959954    -0.44840000
opls_135-331    C    0.08027990    0.87702999    0.83723971    -0.44840000
opls_135-332    C    0.90419010    0.82279990    0.14954989    -0.44840000
opls_135-333    C    0.91519003    0.84246998    0.72674087    -0.45010000
opls_145-334    C    0.47412995    0.54254996    0.18169931    -0.14170000
opls_145-335    C    0.47264997    0.57288991    0.04172986    -0.14370000
opls_700-336    C    0.50020007    0.59515002    0.02197974    0.05910000
opls_145-337    C    0.52738989    0.58765009    0.18038991    -0.14860000
opls_145-338    C    0.52802007    0.55823992    0.33184025    -0.14580000
opls_700-339    C    0.50158002    0.53360991    0.33170931    0.06630000
opls_145-340    C    0.53295003    0.63297999    0.71199011    -0.10630000
opls_700-341    C    0.53456991    0.65794997    0.52217069    0.00940000
opls_145-342    C    0.50414008    0.66774007    0.39594086    0.04810000
opls_700-343    C    0.47236992    0.65473002    0.48760071    0.00940000
opls_145-344    C    0.47218991    0.63528997    0.70842017    -0.10670000
opls_700-345    C    0.50191999    0.62221009    0.81702039    0.05860000
opls_142-346    C    0.48625009    0.70940011    0.06725044    0.07500000
opls_145-347    C    0.46702991    0.74353001    0.70154036    -0.19210000
opls_145-348    C    0.52691002    0.73668997    0.76071071    -0.13700000
opls_700-349    C    0.49382999    0.72935989    0.83795079    0.04680000
opls_515-350    C    0.56875008    0.67440010    0.44798043    0.08980000
opls_515-351    C    0.43855003    0.65714003    0.34704021    0.08160000
opls_135-352    C    0.41454005    0.68372988    0.45959954    -0.44830000
opls_135-353    C    0.41972010    0.62297001    0.33723971    -0.44840000
opls_135-354    C    0.59580990    0.67720010    0.64954989    -0.44840000
opls_135-355    C    0.58480997    0.65753002    0.22674087    -0.45000000
opls_750-356    N    0.68858012    0.49222002    0.82753014    -0.26210000
opls_750-357    N    0.81141988    0.00777998    0.32753014    -0.26200000
opls_750-358    N    0.50777998    0.18858012    0.07752923    -0.26210000
opls_750-359    N    0.99222002    0.31141988    0.57752923    -0.26210000
opls_750-360    N    0.31141988    0.00777998    0.42247077    -0.26210000
opls_750-361    N    0.18858012    0.49222002    0.92247077    -0.26210000
opls_750-362    N    0.49222002    0.31141988    0.17246986    -0.26210000
opls_750-363    N    0.00777998    0.18858012    0.67246986    -0.26210000
opls_750-364    N    0.00777998    0.68858012    0.57752923    -0.26200000
opls_750-365    N    0.49222002    0.81141988    0.07752923    -0.26190000
opls_750-366    N    0.31141988    0.50777998    0.82753014    -0.26210000
opls_750-367    N    0.18858012    0.99222002    0.32753014    -0.26210000
opls_750-368    N    0.81141988    0.50777998    0.92247077    -0.26210000
opls_750-369    N    0.68858012    0.99222002    0.42247077    -0.26210000
opls_750-370    N    0.99222002    0.81141988    0.67246986    -0.26210000
opls_750-371    N    0.50777998    0.68858012    0.17246986    -0.26210000
opls_146-372    H    0.52675006    0.54760002    0.80852929    0.22240000
opls_146-373    H    0.57889996    0.55053001    0.05147944    0.08730000
opls_146-374    H    0.60267991    0.45027992    0.82668085    0.22260000
opls_146-375    H    0.55393988    0.44850999    0.57333006    0.08630000
opls_146-376    H    0.62141996    0.44384993    0.22466037    0.10740000
opls_146-377    H    0.62833998    0.55208997    0.21513994    0.10820000
opls_144-378    H    0.71418002    0.53793001    0.85117028    0.09270000
opls_146-379    H    0.73920001    0.55885994    0.24008038    0.10610000
opls_146-380    H    0.72862993    0.45209987    0.12727918    0.10740000
opls_702-381    H    0.66336995    0.55682011    0.84814956    0.03730000
opls_702-382    H    0.70083000    0.43647999    0.60950952    0.10950000
opls_140-383    H    0.69321987    0.41312989    0.19869969    0.09340000
opls_140-384    H    0.65198994    0.39626997    0.28191936    0.09420000
opls_140-385    H    0.69001998    0.38118987    0.42376016    0.10190000
opls_140-386    H    0.67220996    0.39269989    0.83499009    0.15410000
opls_140-387    H    0.63167012    0.40648002    0.73098914    0.11170000
opls_140-388    H    0.65708011    0.43406008    0.92107953    0.11040000
opls_140-389    H    0.68016006    0.58773997    0.33793988    0.09710000
opls_140-390    H    0.70977995    0.57692005    0.57824031    0.11170000
opls_140-391    H    0.68154000    0.61114999    0.62330915    0.10140000
opls_140-392    H    0.60144012    0.56284007    0.64104061    0.11180000
opls_140-393    H    0.62105003    0.59865002    0.51030062    0.15360000
opls_140-394    H    0.62027005    0.59432002    0.83934021    0.10130000
opls_146-395    H    0.97324994    0.95239998    0.30852929    0.22240000
opls_146-396    H    0.92110004    0.94946999    0.55147944    0.08730000
opls_146-397    H    0.89732009    0.04972008    0.32668085    0.22270000
opls_146-398    H    0.94606012    0.05149001    0.07333006    0.08640000
opls_146-399    H    0.87858004    0.05615007    0.72466037    0.10740000
opls_146-400    H    0.87166002    0.94791003    0.71513994    0.10820000
opls_144-401    H    0.78581998    0.96206999    0.35117028    0.09270000
opls_146-402    H    0.76079999    0.94114006    0.74008038    0.10610000
opls_146-403    H    0.77137007    0.04790013    0.62727918    0.10740000
opls_702-404    H    0.83663005    0.94317989    0.34814956    0.03730000
opls_702-405    H    0.79917000    0.06352001    0.10950952    0.10950000
opls_140-406    H    0.80678013    0.08687011    0.69869969    0.09340000
opls_140-407    H    0.84801006    0.10373003    0.78191936    0.09420000
opls_140-408    H    0.80998002    0.11881013    0.92376016    0.10190000
opls_140-409    H    0.82779004    0.10730011    0.33499009    0.15400000
opls_140-410    H    0.86832988    0.09351998    0.23098914    0.11170000
opls_140-411    H    0.84291989    0.06593992    0.42107953    0.11040000
opls_140-412    H    0.81983994    0.91226003    0.83793988    0.09710000
opls_140-413    H    0.79022005    0.92307995    0.07824031    0.11170000
opls_140-414    H    0.81846000    0.88885001    0.12330915    0.10140000
opls_140-415    H    0.89855988    0.93715993    0.14104061    0.11180000
opls_140-416    H    0.87894997    0.90134998    0.01030062    0.15360000
opls_140-417    H    0.87972995    0.90567998    0.33934021    0.10120000
opls_146-418    H    0.45239998    0.02675006    0.05853020    0.22250000
opls_146-419    H    0.44946999    0.07889996    0.30148035    0.08730000
opls_146-420    H    0.54972008    0.10267991    0.07667994    0.22260000
opls_146-421    H    0.55149001    0.05393988    0.82332915    0.08630000
opls_146-422    H    0.55615007    0.12141996    0.47465946    0.10740000
opls_146-423    H    0.44791003    0.12833998    0.46514085    0.10830000
opls_144-424    H    0.46206999    0.21418002    0.10116937    0.09270000
opls_146-425    H    0.44114006    0.23920001    0.49007947    0.10610000
opls_146-426    H    0.54790013    0.22862993    0.37728008    0.10740000
opls_702-427    H    0.44317989    0.16336995    0.09815047    0.03730000
opls_702-428    H    0.56352001    0.20083000    0.85951043    0.10950000
opls_140-429    H    0.58687011    0.19321987    0.44870060    0.09340000
opls_140-430    H    0.60373003    0.15198994    0.53192027    0.09420000
opls_140-431    H    0.61881013    0.19001998    0.67375925    0.10200000
opls_140-432    H    0.60730011    0.17220996    0.08498918    0.15400000
opls_140-433    H    0.59351998    0.13167012    0.98099005    0.11170000
opls_140-434    H    0.56593992    0.15708011    0.17108044    0.11050000
opls_140-435    H    0.41226003    0.18016006    0.58794079    0.09730000
opls_140-436    H    0.42307995    0.20977995    0.82823940    0.11170000
opls_140-437    H    0.38885001    0.18154000    0.87331006    0.10140000
opls_140-438    H    0.43715993    0.10144012    0.89103970    0.11180000
opls_140-439    H    0.40134998    0.12105003    0.76029971    0.15360000
opls_140-440    H    0.40567998    0.12027005    0.08933930    0.10120000
opls_146-441    H    0.04760002    0.47324994    0.55853020    0.22240000
opls_146-442    H    0.05053001    0.42110004    0.80148035    0.08740000
opls_146-443    H    0.95027992    0.39732009    0.57667994    0.22260000
opls_146-444    H    0.94850999    0.44606012    0.32332915    0.08630000
opls_146-445    H    0.94384993    0.37858004    0.97465946    0.10750000
opls_146-446    H    0.05208997    0.37166002    0.96514085    0.10820000
opls_144-447    H    0.03793001    0.28581998    0.60116937    0.09270000
opls_146-448    H    0.05885994    0.26079999    0.99007947    0.10610000
opls_146-449    H    0.95209987    0.27137007    0.87728008    0.10740000
opls_702-450    H    0.05682011    0.33663005    0.59815047    0.03730000
opls_702-451    H    0.93647999    0.29917000    0.35951043    0.10950000
opls_140-452    H    0.91312989    0.30678013    0.94870060    0.09340000
opls_140-453    H    0.89626997    0.34801006    0.03192027    0.09420000
opls_140-454    H    0.88118987    0.30998002    0.17375925    0.10190000
opls_140-455    H    0.89269989    0.32779004    0.58498918    0.15400000
opls_140-456    H    0.90648002    0.36832988    0.48099005    0.11180000
opls_140-457    H    0.93406008    0.34291989    0.67108044    0.11040000
opls_140-458    H    0.08773997    0.31983994    0.08794079    0.09730000
opls_140-459    H    0.07692005    0.29022005    0.32823940    0.11170000
opls_140-460    H    0.11114999    0.31846000    0.37331006    0.10140000
opls_140-461    H    0.06284007    0.39855988    0.39103970    0.11180000
opls_140-462    H    0.09865002    0.37894997    0.26029971    0.15360000
opls_140-463    H    0.09432002    0.37972995    0.58933930    0.10120000
opls_146-464    H    0.47324994    0.95239998    0.44146980    0.22240000
opls_146-465    H    0.42110004    0.94946999    0.19851965    0.08730000
opls_146-466    H    0.39732009    0.04972008    0.42332006    0.22260000
opls_146-467    H    0.44606012    0.05149001    0.67667085    0.08630000
opls_146-468    H    0.37858004    0.05615007    0.02534054    0.10740000
opls_146-469    H    0.37166002    0.94791003    0.03485915    0.10830000
opls_144-470    H    0.28581998    0.96206999    0.39883063    0.09270000
opls_146-471    H    0.26079999    0.94114006    0.00992053    0.10610000
opls_146-472    H    0.27137007    0.04790013    0.12271992    0.10740000
opls_702-473    H    0.33663005    0.94317989    0.40184953    0.03730000
opls_702-474    H    0.29917000    0.06352001    0.64048957    0.10950000
opls_140-475    H    0.30678013    0.08687011    0.05129940    0.09340000
opls_140-476    H    0.34801006    0.10373003    0.96807973    0.09420000
opls_140-477    H    0.30998002    0.11881013    0.82624075    0.10190000
opls_140-478    H    0.32779004    0.10730011    0.41501082    0.15400000
opls_140-479    H    0.36832988    0.09351998    0.51900995    0.11170000
opls_140-480    H    0.34291989    0.06593992    0.32891956    0.11040000
opls_140-481    H    0.31983994    0.91226003    0.91205921    0.09730000
opls_140-482    H    0.29022005    0.92307995    0.67176060    0.11170000
opls_140-483    H    0.31846000    0.88885001    0.62668994    0.10140000
opls_140-484    H    0.39855988    0.93715993    0.60896030    0.11180000
opls_140-485    H    0.37894997    0.90134998    0.73970029    0.15360000
opls_140-486    H    0.37972995    0.90567998    0.41066070    0.10130000
opls_146-487    H    0.02675006    0.54760002    0.94146980    0.22240000
opls_146-488    H    0.07889996    0.55053001    0.69851965    0.08730000
opls_146-489    H    0.10267991    0.45027992    0.92332006    0.22260000
opls_146-490    H    0.05393988    0.44850999    0.17667085    0.08630000
opls_146-491    H    0.12141996    0.44384993    0.52534054    0.10740000
opls_146-492    H    0.12833998    0.55208997    0.53485915    0.10820000
opls_144-493    H    0.21418002    0.53793001    0.89883063    0.09270000
opls_146-494    H    0.23920001    0.55885994    0.50992053    0.10610000
opls_146-495    H    0.22862993    0.45209987    0.62271992    0.10740000
opls_702-496    H    0.16336995    0.55682011    0.90184953    0.03730000
opls_702-497    H    0.20083000    0.43647999    0.14048957    0.10950000
opls_140-498    H    0.19321987    0.41312989    0.55129940    0.09340000
opls_140-499    H    0.15198994    0.39626997    0.46807973    0.09420000
opls_140-500    H    0.19001998    0.38118987    0.32624075    0.10190000
opls_140-501    H    0.17220996    0.39269989    0.91501082    0.15400000
opls_140-502    H    0.13167012    0.40648002    0.01900995    0.11170000
opls_140-503    H    0.15708011    0.43406008    0.82891956    0.11040000
opls_140-504    H    0.18016006    0.58773997    0.41205921    0.09730000
opls_140-505    H    0.20977995    0.57692005    0.17176060    0.11170000
opls_140-506    H    0.18154000    0.61114999    0.12668994    0.10140000
opls_140-507    H    0.10144012    0.56284007    0.10896030    0.11180000
opls_140-508    H    0.12105003    0.59865002    0.23970029    0.15360000
opls_140-509    H    0.12027005    0.59432002    0.91066070    0.10120000
opls_146-510    H    0.54760002    0.47324994    0.19147071    0.22240000
opls_146-511    H    0.55053001    0.42110004    0.94852056    0.08730000
opls_146-512    H    0.45027992    0.39732009    0.17331915    0.22260000
opls_146-513    H    0.44850999    0.44606012    0.42666994    0.08630000
opls_146-514    H    0.44384993    0.37858004    0.77533963    0.10740000
opls_146-515    H    0.55208997    0.37166002    0.78486006    0.10820000
opls_144-516    H    0.53793001    0.28581998    0.14882972    0.09270000
opls_146-517    H    0.55885994    0.26079999    0.75991962    0.10610000
opls_146-518    H    0.45209987    0.27137007    0.87272082    0.10740000
opls_702-519    H    0.55682011    0.33663005    0.15185044    0.03730000
opls_702-520    H    0.43647999    0.29917000    0.39049048    0.10950000
opls_140-521    H    0.41312989    0.30678013    0.80130031    0.09340000
opls_140-522    H    0.39626997    0.34801006    0.71808064    0.09420000
opls_140-523    H    0.38118987    0.30998002    0.57623984    0.10190000
opls_140-524    H    0.39269989    0.32779004    0.16500991    0.15400000
opls_140-525    H    0.40648002    0.36832988    0.26901086    0.11170000
opls_140-526    H    0.43406008    0.34291989    0.07892047    0.11040000
opls_140-527    H    0.58773997    0.31983994    0.66206012    0.09710000
opls_140-528    H    0.57692005    0.29022005    0.42175969    0.11170000
opls_140-529    H    0.61114999    0.31846000    0.37669085    0.10140000
opls_140-530    H    0.56284007    0.39855988    0.35895939    0.11180000
opls_140-531    H    0.59865002    0.37894997    0.48969938    0.15360000
opls_140-532    H    0.59432002    0.37972995    0.16065979    0.10120000
opls_146-533    H    0.95239998    0.02675006    0.69147071    0.22240000
opls_146-534    H    0.94946999    0.07889996    0.44852056    0.08730000
opls_146-535    H    0.04972008    0.10267991    0.67331915    0.22260000
opls_146-536    H    0.05149001    0.05393988    0.92666994    0.08630000
opls_146-537    H    0.05615007    0.12141996    0.27533963    0.10750000
opls_146-538    H    0.94791003    0.12833998    0.28486006    0.10820000
opls_144-539    H    0.96206999    0.21418002    0.64882972    0.09270000
opls_146-540    H    0.94114006    0.23920001    0.25991962    0.10610000
opls_146-541    H    0.04790013    0.22862993    0.37272082    0.10750000
opls_702-542    H    0.94317989    0.16336995    0.65185044    0.03730000
opls_702-543    H    0.06352001    0.20083000    0.89049048    0.10950000
opls_140-544    H    0.08687011    0.19321987    0.30130031    0.09350000
opls_140-545    H    0.10373003    0.15198994    0.21808064    0.09420000
opls_140-546    H    0.11881013    0.19001998    0.07623984    0.10190000
opls_140-547    H    0.10730011    0.17220996    0.66500991    0.15400000
opls_140-548    H    0.09351998    0.13167012    0.76901086    0.11170000
opls_140-549    H    0.06593992    0.15708011    0.57892047    0.11040000
opls_140-550    H    0.91226003    0.18016006    0.16206012    0.09710000
opls_140-551    H    0.92307995    0.20977995    0.92175969    0.11170000
opls_140-552    H    0.88885001    0.18154000    0.87669085    0.10140000
opls_140-553    H    0.93715993    0.10144012    0.85895939    0.11180000
opls_140-554    H    0.90134998    0.12105003    0.98969938    0.15370000
opls_140-555    H    0.90567998    0.12027005    0.66065979    0.10120000
opls_146-556    H    0.95239998    0.52675006    0.55853020    0.22240000
opls_146-557    H    0.94946999    0.57889996    0.80148035    0.08730000
opls_146-558    H    0.04972008    0.60267991    0.57667994    0.22260000
opls_146-559    H    0.05149001    0.55393988    0.32332915    0.08640000
opls_146-560    H    0.05615007    0.62141996    0.97465946    0.10740000
opls_146-561    H    0.94791003    0.62833998    0.96514085    0.10820000
opls_144-562    H    0.96206999    0.71418002    0.60116937    0.09270000
opls_146-563    H    0.94114006    0.73920001    0.99007947    0.10610000
opls_146-564    H    0.04790013    0.72862993    0.87728008    0.10740000
opls_702-565    H    0.94317989    0.66336995    0.59815047    0.03730000
opls_702-566    H    0.06352001    0.70083000    0.35951043    0.10950000
opls_140-567    H    0.08687011    0.69321987    0.94870060    0.09340000
opls_140-568    H    0.10373003    0.65198994    0.03192027    0.09420000
opls_140-569    H    0.11881013    0.69001998    0.17375925    0.10190000
opls_140-570    H    0.10730011    0.67220996    0.58498918    0.15400000
opls_140-571    H    0.09351998    0.63167012    0.48099005    0.11170000
opls_140-572    H    0.06593992    0.65708011    0.67108044    0.11040000
opls_140-573    H    0.91226003    0.68016006    0.08794079    0.09730000
opls_140-574    H    0.92307995    0.70977995    0.32823940    0.11170000
opls_140-575    H    0.88885001    0.68154000    0.37331006    0.10140000
opls_140-576    H    0.93715993    0.60144012    0.39103970    0.11180000
opls_140-577    H    0.90134998    0.62105003    0.26029971    0.15360000
opls_140-578    H    0.90567998    0.62027005    0.58933930    0.10120000
opls_146-579    H    0.54760002    0.97324994    0.05853020    0.22240000
opls_146-580    H    0.55053001    0.92110004    0.30148035    0.08730000
opls_146-581    H    0.45027992    0.89732009    0.07667994    0.22260000
opls_146-582    H    0.44850999    0.94606012    0.82332915    0.08630000
opls_146-583    H    0.44384993    0.87858004    0.47465946    0.10740000
opls_146-584    H    0.55208997    0.87166002    0.46514085    0.10820000
opls_144-585    H    0.53793001    0.78581998    0.10116937    0.09270000
opls_146-586    H    0.55885994    0.76079999    0.49007947    0.10610000
opls_146-587    H    0.45209987    0.77137007    0.37728008    0.10740000
opls_702-588    H    0.55682011    0.83663005    0.09815047    0.03730000
opls_702-589    H    0.43647999    0.79917000    0.85951043    0.10950000
opls_140-590    H    0.41312989    0.80678013    0.44870060    0.09350000
opls_140-591    H    0.39626997    0.84801006    0.53192027    0.09420000
opls_140-592    H    0.38118987    0.80998002    0.67375925    0.10190000
opls_140-593    H    0.39269989    0.82779004    0.08498918    0.15400000
opls_140-594    H    0.40648002    0.86832988    0.98099005    0.11170000
opls_140-595    H    0.43406008    0.84291989    0.17108044    0.11040000
opls_140-596    H    0.58773997    0.81983994    0.58794079    0.09730000
opls_140-597    H    0.57692005    0.79022005    0.82823940    0.11170000
opls_140-598    H    0.61114999    0.81846000    0.87331006    0.10140000
opls_140-599    H    0.56284007    0.89855988    0.89103970    0.11180000
opls_140-600    H    0.59865002    0.87894997    0.76029971    0.15360000
opls_140-601    H    0.59432002    0.87972995    0.08933930    0.10120000
opls_146-602    H    0.47324994    0.45239998    0.80852929    0.22240000
opls_146-603    H    0.42110004    0.44946999    0.05147944    0.08730000
opls_146-604    H    0.39732009    0.54972008    0.82668085    0.22260000
opls_146-605    H    0.44606012    0.55149001    0.57333006    0.08630000
opls_146-606    H    0.37858004    0.55615007    0.22466037    0.10740000
opls_146-607    H    0.37166002    0.44791003    0.21513994    0.10820000
opls_144-608    H    0.28581998    0.46206999    0.85117028    0.09270000
opls_146-609    H    0.26079999    0.44114006    0.24008038    0.10610000
opls_146-610    H    0.27137007    0.54790013    0.12727918    0.10740000
opls_702-611    H    0.33663005    0.44317989    0.84814956    0.03730000
opls_702-612    H    0.29917000    0.56352001    0.60950952    0.10950000
opls_140-613    H    0.30678013    0.58687011    0.19869969    0.09340000
opls_140-614    H    0.34801006    0.60373003    0.28191936    0.09420000
opls_140-615    H    0.30998002    0.61881013    0.42376016    0.10190000
opls_140-616    H    0.32779004    0.60730011    0.83499009    0.15400000
opls_140-617    H    0.36832988    0.59351998    0.73098914    0.11170000
opls_140-618    H    0.34291989    0.56593992    0.92107953    0.11040000
opls_140-619    H    0.31983994    0.41226003    0.33793988    0.09710000
opls_140-620    H    0.29022005    0.42307995    0.57824031    0.11170000
opls_140-621    H    0.31846000    0.38885001    0.62330915    0.10140000
opls_140-622    H    0.39855988    0.43715993    0.64104061    0.11180000
opls_140-623    H    0.37894997    0.40134998    0.51030062    0.15360000
opls_140-624    H    0.37972995    0.40567998    0.83934021    0.10130000
opls_146-625    H    0.02675006    0.04760002    0.30852929    0.22240000
opls_146-626    H    0.07889996    0.05053001    0.55147944    0.08730000
opls_146-627    H    0.10267991    0.95027992    0.32668085    0.22260000
opls_146-628    H    0.05393988    0.94850999    0.07333006    0.08630000
opls_146-629    H    0.12141996    0.94384993    0.72466037    0.10740000
opls_146-630    H    0.12833998    0.05208997    0.71513994    0.10820000
opls_144-631    H    0.21418002    0.03793001    0.35117028    0.09270000
opls_146-632    H    0.23920001    0.05885994    0.74008038    0.10610000
opls_146-633    H    0.22862993    0.95209987    0.62727918    0.10740000
opls_702-634    H    0.16336995    0.05682011    0.34814956    0.03730000
opls_702-635    H    0.20083000    0.93647999    0.10950952    0.10950000
opls_140-636    H    0.19321987    0.91312989    0.69869969    0.09340000
opls_140-637    H    0.15198994    0.89626997    0.78191936    0.09420000
opls_140-638    H    0.19001998    0.88118987    0.92376016    0.10190000
opls_140-639    H    0.17220996    0.89269989    0.33499009    0.15400000
opls_140-640    H    0.13167012    0.90648002    0.23098914    0.11170000
opls_140-641    H    0.15708011    0.93406008    0.42107953    0.11040000
opls_140-642    H    0.18016006    0.08773997    0.83793988    0.09710000
opls_140-643    H    0.20977995    0.07692005    0.07824031    0.11180000
opls_140-644    H    0.18154000    0.11114999    0.12330915    0.10140000
opls_140-645    H    0.10144012    0.06284007    0.14104061    0.11180000
opls_140-646    H    0.12105003    0.09865002    0.01030062    0.15360000
opls_140-647    H    0.12027005    0.09432002    0.33934021    0.10120000
opls_146-648    H    0.97324994    0.45239998    0.94146980    0.22240000
opls_146-649    H    0.92110004    0.44946999    0.69851965    0.08730000
opls_146-650    H    0.89732009    0.54972008    0.92332006    0.22260000
opls_146-651    H    0.94606012    0.55149001    0.17667085    0.08630000
opls_146-652    H    0.87858004    0.55615007    0.52534054    0.10740000
opls_146-653    H    0.87166002    0.44791003    0.53485915    0.10820000
opls_144-654    H    0.78581998    0.46206999    0.89883063    0.09270000
opls_146-655    H    0.76079999    0.44114006    0.50992053    0.10610000
opls_146-656    H    0.77137007    0.54790013    0.62271992    0.10740000
opls_702-657    H    0.83663005    0.44317989    0.90184953    0.03730000
opls_702-658    H    0.79917000    0.56352001    0.14048957    0.10950000
opls_140-659    H    0.80678013    0.58687011    0.55129940    0.09340000
opls_140-660    H    0.84801006    0.60373003    0.46807973    0.09420000
opls_140-661    H    0.80998002    0.61881013    0.32624075    0.10190000
opls_140-662    H    0.82779004    0.60730011    0.91501082    0.15400000
opls_140-663    H    0.86832988    0.59351998    0.01900995    0.11170000
opls_140-664    H    0.84291989    0.56593992    0.82891956    0.11040000
opls_140-665    H    0.81983994    0.41226003    0.41205921    0.09730000
opls_140-666    H    0.79022005    0.42307995    0.17176060    0.11170000
opls_140-667    H    0.81846000    0.38885001    0.12668994    0.10140000
opls_140-668    H    0.89855988    0.43715993    0.10896030    0.11180000
opls_140-669    H    0.87894997    0.40134998    0.23970029    0.15360000
opls_140-670    H    0.87972995    0.40567998    0.91066070    0.10120000
opls_146-671    H    0.52675006    0.04760002    0.44146980    0.22240000
opls_146-672    H    0.57889996    0.05053001    0.19851965    0.08730000
opls_146-673    H    0.60267991    0.95027992    0.42332006    0.22270000
opls_146-674    H    0.55393988    0.94850999    0.67667085    0.08630000
opls_146-675    H    0.62141996    0.94384993    0.02534054    0.10740000
opls_146-676    H    0.62833998    0.05208997    0.03485915    0.10820000
opls_144-677    H    0.71418002    0.03793001    0.39883063    0.09270000
opls_146-678    H    0.73920001    0.05885994    0.00992053    0.10610000
opls_146-679    H    0.72862993    0.95209987    0.12271992    0.10740000
opls_702-680    H    0.66336995    0.05682011    0.40184953    0.03730000
opls_702-681    H    0.70083000    0.93647999    0.64048957    0.10950000
opls_140-682    H    0.69321987    0.91312989    0.05129940    0.09340000
opls_140-683    H    0.65198994    0.89626997    0.96807973    0.09420000
opls_140-684    H    0.69001998    0.88118987    0.82624075    0.10190000
opls_140-685    H    0.67220996    0.89269989    0.41501082    0.15400000
opls_140-686    H    0.63167012    0.90648002    0.51900995    0.11170000
opls_140-687    H    0.65708011    0.93406008    0.32891956    0.11040000
opls_140-688    H    0.68016006    0.08773997    0.91205921    0.09730000
opls_140-689    H    0.70977995    0.07692005    0.67176060    0.11170000
opls_140-690    H    0.68154000    0.11114999    0.62668994    0.10160000
opls_140-691    H    0.60144012    0.06284007    0.60896030    0.11180000
opls_140-692    H    0.62105003    0.09865002    0.73970029    0.15360000
opls_140-693    H    0.62027005    0.09432002    0.41066070    0.10120000
opls_146-694    H    0.04760002    0.97324994    0.69147071    0.22240000
opls_146-695    H    0.05053001    0.92110004    0.44852056    0.08730000
opls_146-696    H    0.95027992    0.89732009    0.67331915    0.22260000
opls_146-697    H    0.94850999    0.94606012    0.92666994    0.08630000
opls_146-698    H    0.94384993    0.87858004    0.27533963    0.10740000
opls_146-699    H    0.05208997    0.87166002    0.28486006    0.10820000
opls_144-700    H    0.03793001    0.78581998    0.64882972    0.09270000
opls_146-701    H    0.05885994    0.76079999    0.25991962    0.10610000
opls_146-702    H    0.95209987    0.77137007    0.37272082    0.10740000
opls_702-703    H    0.05682011    0.83663005    0.65185044    0.03730000
opls_702-704    H    0.93647999    0.79917000    0.89049048    0.10950000
opls_140-705    H    0.91312989    0.80678013    0.30130031    0.09340000
opls_140-706    H    0.89626997    0.84801006    0.21808064    0.09420000
opls_140-707    H    0.88118987    0.80998002    0.07623984    0.10200000
opls_140-708    H    0.89269989    0.82779004    0.66500991    0.15400000
opls_140-709    H    0.90648002    0.86832988    0.76901086    0.11170000
opls_140-710    H    0.93406008    0.84291989    0.57892047    0.11040000
opls_140-711    H    0.08773997    0.81983994    0.16206012    0.09710000
opls_140-712    H    0.07692005    0.79022005    0.92175969    0.11170000
opls_140-713    H    0.11114999    0.81846000    0.87669085    0.10140000
opls_140-714    H    0.06284007    0.89855988    0.85895939    0.11180000
opls_140-715    H    0.09865002    0.87894997    0.98969938    0.15360000
opls_140-716    H    0.09432002    0.87972995    0.66065979    0.10120000
opls_146-717    H    0.45239998    0.52675006    0.19147071    0.22240000
opls_146-718    H    0.44946999    0.57889996    0.94852056    0.08730000
opls_146-719    H    0.54972008    0.60267991    0.17331915    0.22270000
opls_146-720    H    0.55149001    0.55393988    0.42666994    0.08630000
opls_146-721    H    0.55615007    0.62141996    0.77533963    0.10740000
opls_146-722    H    0.44791003    0.62833998    0.78486006    0.10820000
opls_144-723    H    0.46206999    0.71418002    0.14882972    0.09270000
opls_146-724    H    0.44114006    0.73920001    0.75991962    0.10610000
opls_146-725    H    0.54790013    0.72862993    0.87272082    0.10740000
opls_702-726    H    0.44317989    0.66336995    0.15185044    0.03730000
opls_702-727    H    0.56352001    0.70083000    0.39049048    0.10950000
opls_140-728    H    0.58687011    0.69321987    0.80130031    0.09340000
opls_140-729    H    0.60373003    0.65198994    0.71808064    0.09430000
opls_140-730    H    0.61881013    0.69001998    0.57623984    0.10190000
opls_140-731    H    0.60730011    0.67220996    0.16500991    0.15400000
opls_140-732    H    0.59351998    0.63167012    0.26901086    0.11170000
opls_140-733    H    0.56593992    0.65708011    0.07892047    0.11040000
opls_140-734    H    0.41226003    0.68016006    0.66206012    0.09710000
opls_140-735    H    0.42307995    0.70977995    0.42175969    0.11170000
opls_140-736    H    0.38885001    0.68154000    0.37669085    0.10140000
opls_140-737    H    0.43715993    0.60144012    0.35895939    0.11180000
opls_140-738    H    0.40134998    0.62105003    0.48969938    0.15360000
opls_140-739    H    0.40567998    0.62027005    0.16065979    0.10120000
